<?xml version="1.0" encoding="UTF-8"?>

<!-- generated on 2023-05-25 16:18:09.011492 by randomTrips.py v1_17_0+0000-737931d58da
<configuration>
    <net-file value="map.net.xml"/>
    <output-trip-file value="bus_trips.xml"/>
    <route-file value="bus_routes.rou.xml"/>
    <trip-attributes value="accel=&quot;0.8&quot;"/>
    <vehicle-class value="bus"/>
    <period value="30.0"/>
</configuration>
-->

<!-- generated on 2023-05-25 16:18:08 by Eclipse SUMO duarouter Version 1.17.0
<configuration xmlns:xsi="http://www.w3.org/2001/XMLSchema-instance" xsi:noNamespaceSchemaLocation="http://sumo.dlr.de/xsd/duarouterConfiguration.xsd">

    <input>
        <net-file value="map.net.xml"/>
        <route-files value="bus_trips.xml"/>
    </input>

    <output>
        <output-file value="bus_routes.rou.xml"/>
        <alternatives-output value="NUL"/>
    </output>

    <time>
        <begin value="0"/>
        <end value="3600.0"/>
    </time>

    <report>
        <no-warnings value="true"/>
        <ignore-errors value="true"/>
        <no-step-log value="true"/>
    </report>

</configuration>
-->

<routes xmlns:xsi="http://www.w3.org/2001/XMLSchema-instance" xsi:noNamespaceSchemaLocation="http://sumo.dlr.de/xsd/routes_file.xsd">
    <vType id="bus" vClass="bus" accel="0.8"/>
    <vehicle id="bus0" type="bus" depart="0.00">
        <route edges="12515825#0 12518562#0 12518562#1 12518562#2 12506643#1 12506643#2 -12514598#12 -12514598#11 -12514598#10 -12514598#9 -12514598#8 -27582617#7 -27582617#6 -27582617#5 -27582617#4 -27582617#3 -27582617#2 -27582617#1 12504859#0 12504859#1 -12504859#1"/>
    </vehicle>
    <vehicle id="bus1" type="bus" depart="30.00">
        <route edges="-189090040#15 -189090040#14 -189090040#13 -189090040#12 -189090040#11 -189090040#10 -189090040#9 -189090040#8 -189090040#7 -189090040#6 -189090040#5 -189090040#4 -189090040#3 -189090040#2 -189090040#1 -189090040#0 -12512579#4 12512579#4 189090040#0 189090040#1 189090040#2 189090040#3 189090040#4 189090040#5 189090040#6 189090040#7 189090040#8 189090040#9 189090040#10 189090040#11 189090040#12 189090040#13 189090040#14 189090040#15 189090040#16 189090040#17 189090040#18 189090040#19 189090040#20 189090040#21 189090040#22 189090040#23 189090040#24 189090040#25 189090040#26 189090040#27 189090040#28 189090040#29 189090040#30 189090040#31 189090040#32 189090040#33 189090040#34 189090040#35 189090040#36 189090040#37 -750011609#12 -750011609#11 -750011609#10 -750011609#9 -750011609#8 -750011609#7 -750011609#6 -750011609#5 -750011609#4 -750011609#3 -750011609#2 -750011609#1 -750011609#0 -12514813#15 -12514813#14 -12514813#13 12516691#0 12516691#1 12525041#0 12525041#1 12525041#2 -12525041#2"/>
    </vehicle>
    <vehicle id="bus2" type="bus" depart="60.00">
        <route edges="144679983#0 144679983#1 26939234#1 28660990#0 28660990#1 12509898#0 12509898#1 12509898#2 12509898#3 12509898#4 12509898#5 12509898#6 144679984#0 144679984#1 144679984#2 144679984#3 144679984#4 144679984#5 144679984#6 724068289#0 724068289#1 724068289#2 724068289#3 724068291#0 724068291#1 12860790 -144846516#5 -144846516#4 -144846516#3 -144846516#2 -144846516#1 -144846516#0 -12511625 -565169245 565169246 -144846532#1 -144846532#0 -12517561 12525680 27603088#0 27603088#1 27603088#2 27603088#3 27603088#4 27603088#5 27603088#6 27603088#7 27603088#8 12504783#0 12504783#1 12504783#2 743234027 334781294 27607832 27607883 334781295#0 334781295#1 334781295#2 334781295#3 334781295#4 334781295#5 334781295#6 334781295#7 334781295#8 334781295#9 334781295#10 334781295#11 12520167#0"/>
    </vehicle>
    <vehicle id="bus4" type="bus" depart="120.00">
        <route edges="-724068298#7 -724068298#6 570806410#0 570806410#1 370814340#6 370814340#7 724068295 724068297 724068296 473901225#0 473901225#1 473901225#2 473901225#3 473901211#0 473901211#1 -724068292#2 -724068292#1 -724068292#0 -144846516#5 -144846516#4 -144846516#3 -144846516#2 -144846516#1 -144846516#0 -12511625 -565169245 565169246 -144846532#1 -144846532#0 -12517561 12525680 27603088#0 27603088#1 27603088#2 27603088#3 27603088#4 27603088#5 27603088#6 27603088#7 27603088#8 12504783#0 12504783#1 12507530#0 12505016#0 12505016#1 -12505016#1"/>
    </vehicle>
    <vehicle id="bus5" type="bus" depart="150.00">
        <route edges="-12521280#6 -12521280#5 -12521280#4 -12521280#3 -12505118#0 -12520592#0 -12509269#1 -12509269#0 12514813#13 12514813#14 12514813#15 750011609#0 750011609#1 750011609#2 750011609#3 750011609#4 750011609#5 750011609#6 750011609#7 750011609#8 750011609#9 750011609#10 750011609#11 750011609#12 750011609#13 750011609#14 750011609#15 750011609#16 750011609#17 -837805596#1 -837805596#0 837805597 12526444#0 12526444#1 12526444#2 12526444#3 -12506334 12506334"/>
    </vehicle>
    <vehicle id="bus6" type="bus" depart="180.00">
        <route edges="-12504859#4 12504859#4 12504859#5 -724068309#1 -724068309#0 -724068307 -724068304#1 -724068304#0 -724068303 -334781277 -724068302#4 -724068302#3 -724068302#2 -724068302#1 -724068302#0 -724068301#5 -724068301#4 -724068301#3 -724068301#2 -724068301#1 -724068301#0 -334781276 -565169245 565169246 -144846532#1 -144846532#0 -12517561 12525680 27603088#0 27603088#1 27603088#2 27603088#3 27603088#4 27603088#5 27603088#6 27603088#7 27603088#8 12504783#0 12504783#1 12504783#2 743234027 334781294 27607832 27607883 334781295#0 334781295#1 334781295#2 334781295#3 334781295#4 334781295#5 334781295#6 334781295#7 334781295#8 334781295#9 334781295#10 334781295#11 334781295#12 334781295#13 334781295#14 334781295#15 -12520167#6 -12520167#5"/>
    </vehicle>
    <vehicle id="bus7" type="bus" depart="210.00">
        <route edges="12516691#7 12516691#8 12516691#9 -12516691#9 -12516691#8 -12516691#7 -12516691#6 -12516691#5 -12516691#4 -12516691#3 -12516691#2 -12516691#1 -12516691#0 12514813#13 12514813#14 12514813#15 750011609#0 750011609#1 750011609#2 750011609#3 750011609#4 750011609#5 750011609#6 750011609#7 750011609#8 750011609#9 750011609#10 750011609#11 750011609#12 750011609#13 750011609#14 750011609#15 750011609#16 750011609#17 837805596#2 -12514822#2 -12514822#1 -12514822#0 -12518084#6 -12518084#5 12509610#0"/>
    </vehicle>
    <vehicle id="bus8" type="bus" depart="240.00">
        <route edges="-12522474#2 12526748 12514341#1 12504783#0 12504783#1 12504783#2 743234027 334781294 27607832 27607883 189090054 -189090039#6 12512702#0"/>
    </vehicle>
    <vehicle id="bus10" type="bus" depart="300.00">
        <route edges="27271744#0 27271744#1 27271744#2 27271744#3 27271744#4 27271744#5 -27271744#5 -27271744#4 -27271744#3 -27271744#2 -27271744#1 -27271744#0 27603088#5 27603088#6 27603088#7 27603088#8 -12514341#1 -12514341#0 -12520533#0 12522474#3 12523462#2"/>
    </vehicle>
    <vehicle id="bus11" type="bus" depart="330.00">
        <route edges="-28693981#0 -750011609#18 -750011609#17 -750011609#16 -750011609#15 -750011609#14 -750011609#13 -189090040#37 -189090040#36 -189090040#35 -189090040#34 -189090040#33 -189090040#32 -189090040#31 -189090040#30 -189090040#29 -189090040#28 -189090040#27 -189090040#26 -189090040#25 -189090040#24 -189090040#23 -189090040#22 -189090040#21 -189090040#20 -189090040#19 -189090040#18 -189090040#17 -189090040#16 -189090040#15 -189090040#14 -189090040#13 -189090040#12 -189090040#11 -189090040#10 -189090040#9 -189090040#8 -189090040#7 -189090040#6 -189090040#5 -189090040#4 -189090040#3 -189090040#2 -189090040#1 -189090040#0 -12512579#4 -12512579#3 -12512579#2 -12512579#1 -12512579#0 -12524576 24018678 474204619 629297643 189090044#0 189090044#1 629297639 27272673#0 629301441 27272860 192976882 19801912#0 -12515987#6 -12515987#5 -12515987#4 -12515987#3"/>
    </vehicle>
    <vehicle id="bus12" type="bus" depart="360.00">
        <route edges="724068303 724068304#0 724068304#1 -12514206#6 -12514206#5 -12514206#4 -12514206#3 -12514206#2 -12514206#1 -12514206#0 12514206#0 12514206#1 12514206#2 12514206#3 12514206#4 12514206#5 12514206#6 -724068304#1 -724068304#0 -724068303 -334781277 334781293#0 334781293#1 334781293#2 334781293#3 334781293#4 334781293#5 334781293#6 334781293#7 334781293#8 334781293#9 334781280#0 334781280#1 334781280#2 26956240#0 26956240#1 -334781293#9 -334781293#8"/>
    </vehicle>
    <vehicle id="bus13" type="bus" depart="390.00">
        <route edges="-12510104#0 -33055786#0 -33056968#1 -33056968#0 33056967 -751615567#5 -751615567#4 -751615567#3 -751615567#2 -751615567#1 -751615567#0 -751615566 -751615564 -751615565 -189090040#38 750011609#13 750011609#14 750011609#15 750011609#16 750011609#17 837805596#2 837805596#3 837805596#4 837805596#5 12510292#0 12510292#1 -12510292#4 -12510292#3"/>
    </vehicle>
    <vehicle id="bus14" type="bus" depart="420.00">
        <route edges="334781293#3 334781293#4 334781293#5 334781293#6 334781293#7 334781293#8 334781293#9 334781280#0 334781280#1 334781280#2 26956240#0 26956240#1 -334781293#9 -334781293#8 -334781293#7 -334781293#6 -334781293#5 -334781293#4 -334781293#3 -334781293#2 -334781293#1 -334781293#0 -724068302#4 -724068302#3 -724068302#2 -724068302#1 -724068302#0 -724068301#5 -724068301#4 -724068301#3 -724068301#2 -724068301#1 -724068301#0 -334781276 -565169245 565169246 -144846532#1 144846518 4526699#1 568800237#2 634816586 473901198 684356191#0 684356191#1 684356191#2 473901199 12514598#0 12514598#1 12514598#2 12514598#3 12514598#4 12514598#5 12514598#6 12514598#7 12514598#8 12514598#9 12514598#10 12514598#11 12514598#12 12514598#13 12514598#14 12514598#15"/>
    </vehicle>
    <vehicle id="bus15" type="bus" depart="450.00">
        <route edges="27271744#3 27271744#4 27271744#5 -27271744#5 -27271744#4 -27271744#3 -27271744#2 -27271744#1 -27271744#0 -27603088#4 -27603088#3 -27603088#2 -27603088#1 -27603088#0 -12525680 12517561 144846532#0 144846532#1 568800234#0 568800234#1 568800234#2 568800234#3 565169245 12511625 144846516#0 144846516#1 144846516#2 144846516#3 144846516#4 144846516#5 -12860790 -724068291#1 -724068291#0 -724068289#3 -724068289#2 -724068289#1 -724068289#0 -144679984#6 -144679984#5 -144679984#4 -144679984#3 -144679984#2 -144679984#1 -144679984#0 -12509898#6 -12509898#5 -12509898#4 -12509898#3 -12509898#2 -12509898#1 -12509898#0 144679972#0 144679972#1"/>
    </vehicle>
    <vehicle id="bus16" type="bus" depart="480.00">
        <route edges="12507596#4 12507596#5 -12514598#5 -12514598#4 -12514598#3 -12514598#2 -12514598#1 -12514598#0 -473901199 -684356191#2 -684356191#1 -684356191#0 -473901198 634816577 476161857 568800236#0 568800236#1 568800239 -33057329#4 -33057329#3 -33057329#2 -33057329#1 -33057329#0 -23965510 12508542 33056967 -751615567#5 -751615567#4 -751615567#3 -751615567#2 -751615567#1 -751615567#0 -751615566 -751615564 -751615565 -189090040#38 750011609#13 750011609#14 750011609#15"/>
    </vehicle>
    <vehicle id="bus18" type="bus" depart="540.00">
        <route edges="28151997#0 -28151997#0 12505817#2 12505817#3 837805597 12514941"/>
    </vehicle>
    <vehicle id="bus19" type="bus" depart="570.00">
        <route edges="351695511#0 351695511#1 351695511#2 351695511#3 629301440#1 629301440#2 -629297639 -189090044#1 -189090044#0 629297644#0 629297644#1 629297644#2 -474204619 -24018678 12524576 12512579#0 12512579#1 12512579#2 12512579#3 12512579#4 189090040#0 189090040#1 189090040#2 189090040#3 189090040#4 189090040#5 189090040#6 189090040#7 189090040#8 189090040#9 189090040#10 189090040#11 189090040#12 189090040#13 189090040#14 189090040#15 189090040#16 189090040#17 189090040#18 189090040#19 189090040#20 189090040#21 189090040#22 189090040#23 189090040#24 189090040#25 189090040#26 189090040#27 189090040#28 189090040#29 189090040#30 189090040#31 189090040#32 189090040#33 189090040#34 189090040#35 189090040#36 189090040#37 189090040#38 751615565 751615564 751615566 751615567#0 751615567#1 751615567#2 751615567#3 751615567#4 751615567#5 -33056967 33056968#0 33056968#1 33055786#0 33055786#1 189090039#0 189090039#1 189090039#2 189090039#3 189090039#4 189090039#5 189090039#6 12500145 743234028 334781294 27607832 27607883 334781295#0 334781295#1 334781295#2 334781295#3 334781295#4 334781295#5 334781295#6 334781295#7 334781295#8 334781295#9 -12525913#1 -12525913#0 12511455#2"/>
    </vehicle>
    <vehicle id="bus21" type="bus" depart="630.00">
        <route edges="-12523216#0 12523216#0 12523216#1 -23969821#6 -23969821#5 -23969821#4 -23969821#3"/>
    </vehicle>
    <vehicle id="bus22" type="bus" depart="660.00">
        <route edges="-12509452#1 -12509452#0 12509452#0 12509452#1 12509452#2 -12515004#1 -12515004#0 -12517426#1 -12517426#0 12514813#3 12514813#4 12514813#5 12514813#6 12514813#7 12514813#8 12514813#9 12514813#10 12514813#11 12514813#12 12514813#13 12514813#14 12514813#15 750011609#0 750011609#1 750011609#2 750011609#3 750011609#4 750011609#5 750011609#6 750011609#7 750011609#8 750011609#9 750011609#10 750011609#11 750011609#12 189090040#38 751615565 751615564 751615566 751615567#0 751615567#1 751615567#2 751615567#3 751615567#4 751615567#5 -33056967 33056968#0 33056968#1 33055786#0 33055786#1 189090039#0 189090039#1 189090039#2 189090039#3 189090039#4 189090039#5 189090039#6 12500145 743234028 334781294 27607832 27607883 334781295#0 334781295#1 -12525901#6 -12525901#5 -12525901#4 -12525901#3 -12525901#2"/>
    </vehicle>
    <vehicle id="bus23" type="bus" depart="690.00">
        <route edges="-12510539#2 12510539#2 -189090039#0 -33055786#1 -33055786#0 -33056968#1 -33056968#0 -12508542 23965510 33057329#0 33057329#1 33057329#2 33057329#3 33057329#4 568800237#0 12498752 144846532#0 144846532#1 -12517094#2 -12517094#1 -12517094#0 -614945676 195316373#0 195316373#1 -195316373#1"/>
    </vehicle>
    <vehicle id="bus25" type="bus" depart="750.00">
        <route edges="-370814340#6 370814340#6 370814340#7 724068295 724068297 724068296 473901225#0 473901225#1 473901225#2 473901225#3 473901211#0 473901211#1 -724068292#2 -724068292#1 -724068292#0 -144846516#5 -144846516#4 -144846516#3 -144846516#2 -144846516#1 -144846516#0 -12511625 -565169245 565169246 -144846532#1 144846518 4526699#1 568800237#2 634816586 473901198 684356191#0 684356191#1 684356191#2 473901199 12508531#0 12508531#1 -12501302 -12522498"/>
    </vehicle>
    <vehicle id="bus26" type="bus" depart="780.00">
        <route edges="-144846516#3 -144846516#2 -144846516#1 -144846516#0 -12511625 12511625 144846516#0 144846516#1 144846516#2 144846516#3 144846516#4 144846516#5 -12860790 -724068291#1 -724068291#0 -724068289#3 -724068289#2 -724068289#1 -724068289#0 12517184#0 12517184#1 12517184#2 12517184#3 12517184#4 12517184#5 724068288#0 724068288#1 724068288#2 724068288#3"/>
    </vehicle>
    <vehicle id="bus27" type="bus" depart="810.00">
        <route edges="12516691#3 12516691#4 12516691#5 12516691#6 -12516691#6 -12516691#5 -12516691#4 -12516691#3 -12516691#2 -12516691#1 -12516691#0 -12514813#12 -12514813#11 -12514813#10 -12514813#9 -12514813#8 -12514813#7 -12514813#6 -12514813#5 -12514813#4 -12514813#3 -12514813#2 -12514813#1 -12514813#0 12514813#0"/>
    </vehicle>
    <vehicle id="bus28" type="bus" depart="840.00">
        <route edges="-12516691#6 -12516691#5 -12516691#4 -12516691#3 -12516691#2 -12516691#1 -12516691#0 -12514813#12 -12514813#11 -12514813#10 -12514813#9 -12514813#8 -12514813#7 -12514813#6 -12514813#5 -12514813#4 -12514813#3 -12514813#2 12499742#0 12499742#1 691852298#0 691852298#1 691852298#2 691852298#3 691852298#4 691852298#5 691852298#6 -12511444#1 -12511444#0 -724068296 -724068297 -724068295 -370814340#7 -370814340#6 -370814340#5 -370814340#4 -370814340#3 -370814340#2 -370814340#1 -370814340#0 -724068308#16 -724068308#15 -724068308#14 -724068308#13 -724068308#12 -724068308#11 -724068308#10 -724068308#9 -724068308#8 -724068308#7 -724068308#6 -724068308#5 -724068308#4 -13475393#6 -13475393#5 13475393#5 13475393#6"/>
    </vehicle>
    <vehicle id="bus29" type="bus" depart="870.00">
        <route edges="-12515987#5 12515987#5 12515987#6 19801912#1 19801912#2 19801911 473901189 12509829#0 12509829#1 12509829#2 12504771#0 12504771#1 12504771#2 370814340#0 370814340#1 370814340#2 370814340#3 370814340#4 370814340#5 370814340#6 370814340#7 724068295 724068297 724068296 473901225#0 473901225#1 473901225#2 473901225#3 473901211#0 473901211#1 -724068292#2 -724068292#1 -724068292#0 -144846516#5 -144846516#4 -144846516#3 -144846516#2 -144846516#1 -144846516#0 -12511625 -724068300 -713420429#5 -713420429#4 -713420429#3 -713420429#2"/>
    </vehicle>
    <vehicle id="bus30" type="bus" depart="900.00">
        <route edges="784874387#1 -784874387#1 -784874387#0 23968302#0 -684356191#0 12498657#0 12498657#1 -27603088#0 -12525680 12517561 144846532#0 144846532#1 568800234#0 568800234#1 568800234#2 568800234#3 565169245 12511625 144846516#0 144846516#1 144846516#2 144846516#3 144846516#4 144846516#5 724068292#0 724068292#1 724068292#2 12514813#0 12514813#1 12514813#2 12514813#3 12511745#0 12511745#1 12511745#2 12511745#3 12511745#4 12511745#5 334750679#0 12516691#7 12516691#8 12516691#9"/>
    </vehicle>
    <vehicle id="bus31" type="bus" depart="930.00">
        <route edges="12509470#1 -12509470#1 -12517426#4 -12517426#3 -12517426#2 -12517426#1 -12517426#0 12514813#3 12514813#4 12514813#5 12514813#6 12514813#7 12514813#8 12514813#9 12514813#10 12514813#11 12514813#12 12514813#13 12514813#14 12514813#15 750011609#0 750011609#1 750011609#2 750011609#3 750011609#4 750011609#5 750011609#6 750011609#7 750011609#8 750011609#9 750011609#10 750011609#11 750011609#12 750011609#13 750011609#14 750011609#15 750011609#16 750011609#17 -837805596#1 -837805596#0 837805597 12526444#0 12526444#1 12526444#2 12504283#0 12504283#1 12520676"/>
    </vehicle>
    <vehicle id="bus32" type="bus" depart="960.00">
        <route edges="33057329#1 33057329#2 -33057329#2 -33057329#1 -33057329#0 -23965510 12508542 33056967 -751615567#5 -751615567#4 -751615567#3 -751615567#2 -751615567#1 -751615567#0 -751615566 -751615564 -751615565 -189090040#38 -750011609#12 -750011609#11 -750011609#10 -750011609#9 -750011609#8 -750011609#7 -750011609#6 -750011609#5 -750011609#4 -750011609#3 -750011609#2 -750011609#1 -750011609#0 -12514813#15 -12514813#14 -12514813#13 -12514813#12 -12514813#11 -12514813#10 -12514813#9 -12514813#8 -12514813#7 -12514813#6 -12514813#5 -12514813#4 -12514813#3 -12514813#2 12499742#0 12499742#1 691852298#0 691852298#1 691852298#2 691852298#3 691852298#4 691852298#5 691852298#6 -12511444#1 -12511444#0 -724068296 -724068297 -724068295 -370814340#7 -370814340#6 -370814340#5 -370814340#4 -370814340#3 -370814340#2 -370814340#1 -370814340#0 351695510#0 351695510#1 351695512#0 351695512#1 351695512#2 351695514 351695513#0 12516873#0 19801912#2 19801911"/>
    </vehicle>
    <vehicle id="bus33" type="bus" depart="990.00">
        <route edges="-12523462#1 12509636 12505532 -12505016#1 -12505016#0 -12507530#0 12504783#2 743234027 334781294 27607832 27607883 189090054 -189090039#6 -189090039#5 -189090039#4 -189090039#3 -189090039#2 -189090039#1 -189090039#0 -33055786#1 -33055786#0 -33056968#1 -33056968#0 33056967 -751615567#5 -751615567#4 -751615567#3 -751615567#2 -751615567#1 -751615567#0 -751615566 -751615564 -751615565 -189090040#38 -189090040#37 -189090040#36 -12505036#7 -12505036#6 -12505036#5 -12505036#4 -12505036#3"/>
    </vehicle>
    <vehicle id="bus34" type="bus" depart="1020.00">
        <route edges="-27199515#7 -27199515#6 -27199515#5 -27199515#4 -27199515#3 -27199515#2 -27199515#1 -27199515#0 750011609#1 750011609#2 750011609#3 750011609#4 750011609#5 750011609#6 750011609#7 750011609#8 750011609#9 750011609#10 750011609#11 750011609#12 -189090040#37 -189090040#36 -189090040#35 -189090040#34 -189090040#33 -189090040#32 -189090040#31 -189090040#30 -189090040#29"/>
    </vehicle>
    <vehicle id="bus35" type="bus" depart="1050.00">
        <route edges="-12520175#0 -12509470#4 -12509470#3 -12509470#2 -12509470#1 -12509470#0 370814340#2 370814340#3 370814340#4 370814340#5 370814340#6 370814340#7 -724068294#1 -724068294#0 -724068282#1 724068282#1 724068294#0"/>
    </vehicle>
    <vehicle id="bus36" type="bus" depart="1080.00">
        <route edges="473901198 684356191#0 -684356191#0 12498657#0 12498657#1 27603088#1 27603088#2 27603088#3 27603088#4 27603088#5 27603088#6 27603088#7 27603088#8 -27603088#8 -27603088#7"/>
    </vehicle>
    <vehicle id="bus37" type="bus" depart="1110.00">
        <route edges="12517184#0 12517184#1 12517184#2 12517184#3 12517184#4 12517184#5 724068288#0 724068288#1 724068288#2 724068288#3 724068288#4 724068288#5 724068287 724068286 724068284 724068285 724068283 724068282#0 724068282#1 724068294#0 724068294#1 724068295 724068297 724068296 473901225#0 473901225#1 473901225#2 473901225#3 473901211#0 473901211#1 -724068292#2 -724068292#1 -724068292#0 -12860790 -724068291#1 -724068291#0 -724068289#3 -724068289#2"/>
    </vehicle>
    <vehicle id="bus38" type="bus" depart="1140.00">
        <route edges="671983232#5 -12513610#0 12510955#5 12510955#6 12510955#7 12510955#8 12510955#9 12510955#10 12500732 32043901#2 32043901#3 32043901#4 32043901#5 -473901199 -684356191#2 -684356191#1 -684356191#0 12498657#0 12498657#1 -27603088#0 -12525680 12517561 144846532#0 144846532#1 568800234#0 568800234#1 568800234#2 568800234#3 565169245 -724068300 -713420429#5 -713420429#4 -713420429#3 -713420429#2 -713420429#1 565169247 -12505118#2 -12505118#1 12521280#3 12521280#4 12521280#5 12521280#6 12497370"/>
    </vehicle>
    <vehicle id="bus39" type="bus" depart="1170.00">
        <route edges="-144679984#6 -144679984#5 -144679984#4 -144679984#3 -144679984#2 -144679984#1 -144679984#0 -12509898#6 -12509898#5 -12509898#4 -12509898#3 -12509898#2 -12509898#1 -12509898#0 144679972#0 144679972#1 144679972#2 144679972#3 724068293#0 724068293#1 724068282#0 -724068282#0 -724068293#1 -724068293#0 -144679972#3 -144679972#2"/>
    </vehicle>
    <vehicle id="bus40" type="bus" depart="1200.00">
        <route edges="12509610#5 -12509610#5 -12509610#4 -12509610#3 -12509610#2 -837805596#5 -837805596#4 -837805596#3 -837805596#2 -750011609#17 -750011609#16 -750011609#15 -750011609#14 -750011609#13 -189090040#37 -189090040#36 -189090040#35 -189090040#34 -189090040#33 -189090040#32 -189090040#31 -189090040#30 -189090040#29 -189090040#28 -189090040#27 -189090040#26 -189090040#25 -189090040#24 -189090040#23 -189090040#22 -189090040#21 -189090040#20 -189090040#19"/>
    </vehicle>
    <vehicle id="bus41" type="bus" depart="1230.00">
        <route edges="12510955#5 12510955#6 12510955#7 12510955#8 12510955#9 12510955#10 12500732 32043901#2 32043901#3 32043901#4 32043901#5 -473901199 -684356191#2 -684356191#1 -684356191#0 12498657#0 12498657#1 -27603088#0 -12525680 12517561 144846532#0 144846532#1 568800234#0 568800234#1 568800234#2 568800234#3 565169245 -724068300 -713420429#5 -713420429#4 -713420429#3 -713420429#2 -713420429#1 565169247"/>
    </vehicle>
    <vehicle id="bus43" type="bus" depart="1290.00">
        <route edges="847327156#3 847327156#4 847327156#5 847327156#6 847327156#7 847327156#8 -847327156#8 -847327156#7 -847327156#6 -847327156#5 -847327156#4 -847327156#3 -847327156#2 -847327156#1 -847327156#0 847510991 -13475393#0 -724068309#1 -724068309#0 -724068307 -724068304#1 -724068304#0 -724068303 -334781277 -724068302#4 -724068302#3 -724068302#2 -724068302#1 -724068302#0 -724068301#5 -724068301#4 -724068301#3 -724068301#2 -724068301#1 -724068301#0 -334781276 -565169245 565169246 -144846532#1 144846518 4526699#1 568800237#2 634816586 473901198 684356191#0 684356191#1 684356191#2 473901199 12514598#0 12514598#1 12514598#2 12514598#3 12514598#4 12514598#5 12514598#6 12514598#7 12514598#8 12514598#9 12514598#10 12514598#11 12514598#12 12514598#13 12506776#0"/>
    </vehicle>
    <vehicle id="bus44" type="bus" depart="1320.00">
        <route edges="-12509907#2 -12509907#1 12503230 -12506721#0 12517094#2 -144846532#1 -144846532#0 -12517561 12525680 27603088#0 12498657#2 568800236#0 568800236#1 568800239 -33057329#4 -33057329#3 -33057329#2 -33057329#1 -33057329#0 -23965510 12508542 33056967 -751615567#5 -751615567#4 -751615567#3 -751615567#2 -751615567#1 -751615567#0 -751615566 -751615564 -751615565 -189090040#38 750011609#13 750011609#14 750011609#15 750011609#16 750011609#17 -837805596#1 -837805596#0 837805597 12526444#0 12526444#1 12526444#2 12526444#3 -12506334"/>
    </vehicle>
    <vehicle id="bus45" type="bus" depart="1350.00">
        <route edges="-12510960#2 -12510960#1 -12510960#0 -27603088#4 -27603088#3 -27603088#2 -27603088#1 -27603088#0 -12525680 12517561 4526699#0 4526699#1 568800237#2 634816586 473901198 684356191#0 684356191#1 684356191#2 473901199 12514598#0 12514598#1 12514598#2 12514598#3 12514598#4 12514598#5 12514598#6 12514598#7 12514598#8 12514598#9 12514598#10 12514598#11 12514598#12 12514598#13 12514598#14 12514598#15 12514598#16 -12515537 12515825#0"/>
    </vehicle>
    <vehicle id="bus46" type="bus" depart="1380.00">
        <route edges="24018678 474204619 629297643 189090044#0 189090044#1 629297639 27272673#0 629301441 27272860 192976882 19801912#0 19801912#1 19801912#2 19801911 473901189 12509829#0 12509829#1 12509829#2 12504771#0 12504771#1 370815179 -724068308#15 -724068308#14 -724068308#13 -724068308#12 -724068308#11 -724068308#10 -724068308#9 -724068308#8 -724068308#7 -724068308#6 -724068308#5 -724068308#4 -13475393#6 -13475393#5 -13475393#4 -13475393#3 -13475393#2 -13475393#1 -13475393#0 724068309#2 724068309#3 -724068309#3"/>
    </vehicle>
    <vehicle id="bus47" type="bus" depart="1410.00">
        <route edges="-12507887#0 12507944#2 12507944#3 12523214#2 12523214#3 12523214#4 12523214#5 12523214#6 12523214#7 -334781295#4 -334781295#3 -334781295#2 -334781295#1 -334781295#0 189090054 -189090039#6 -189090039#5 -189090039#4 -189090039#3 -189090039#2 -189090039#1 -189090039#0 -33055786#1 -33055786#0 -33056968#1 -33056968#0 33056967 -751615567#5 -751615567#4 -751615567#3 -751615567#2 -751615567#1 -751615567#0 -751615566 -751615564 -751615565 -189090040#38 -189090040#37 -189090040#36 -189090040#35 -189090040#34 -189090040#33 -189090040#32 -189090040#31 -189090040#30 -189090040#29 -189090040#28 -189090040#27 -189090040#26 -189090040#25 -189090040#24 -189090040#23 -189090040#22 -189090040#21 -189090040#20 -189090040#19 -189090040#18 -189090040#17 -189090040#16 -189090040#15 -189090040#14 -189090040#13 -189090040#12 -189090040#11 -189090040#10 -189090040#9 -189090040#8 -189090040#7 -189090040#6 -189090040#5 -189090040#4 -189090040#3 -189090040#2 -189090040#1 -189090040#0 -12512579#4 -12512579#3 -12512579#2 -12512579#1 -12512579#0 -12524576 24018678 474204619 629297643 189090044#0 189090044#1 629297639 27272673#0 27272673#1 717388484#0 717388484#1 104796144#0 104796144#1 104796138#0 104796138#1 104796138#2 104796138#3 104796138#4 104796138#5 274356763#0 274356763#1 -717388488#2 -717388488#1 -717388488#0 -717388482#1"/>
    </vehicle>
    <vehicle id="bus48" type="bus" depart="1440.00">
        <route edges="847327156#0 847327156#1 -847327156#1 -847327156#0 847510991 -13475393#0 -12504859#5 -12504859#4 -12504859#3 -12504859#2 -12504859#1 -12504859#0 27582617#1 27582617#2 27582617#3 27582617#4 32043901#1 -12500732 12508531#3 12508531#4"/>
    </vehicle>
    <vehicle id="bus49" type="bus" depart="1470.00">
        <route edges="750011609#0 -750011609#0 -12514813#15 -12514813#14 -12514813#13 -12514813#12 -12514813#11 -12514813#10 -12514813#9 -12514813#8 -12514813#7 -12514813#6 -12514813#5 -12514813#4 -12514813#3 -12514813#2 12499742#0 12499742#1 691852298#0 691852298#1 691852298#2 691852298#3 691852298#4 691852298#5 691852298#6 -12511444#1 -12511444#0 -724068296 -724068297 -724068295 -370814340#7 -370814340#6 -370814340#5 -370814340#4 -370814340#3 -370814340#2 -370814340#1 -370814340#0 351695510#0 351695510#1 351695512#0 351695512#1 351695512#2 351695514 351695513#0 351695513#1 351695513#2 351695511#0 351695511#1"/>
    </vehicle>
    <vehicle id="bus50" type="bus" depart="1500.00">
        <route edges="-12502975#1 -12502975#0 12502975#0 12502975#1 12509898#0 12509898#1 12509898#2 12509898#3 12509898#4 12509898#5 12509898#6 144679984#0 144679984#1 144679984#2 144679984#3 144679984#4 144679984#5 144679984#6 724068289#0 724068289#1 724068289#2 724068289#3 724068291#0 724068291#1 12860790 -144846516#5 -144846516#4 -144846516#3 -144846516#2 -144846516#1 -144846516#0 -12511625 -565169245 565169246 -144846532#1 -144846532#0 -12517561 12525680 27603088#0 27603088#1 27603088#2 27603088#3 27603088#4 27603088#5 27603088#6 27603088#7 27603088#8 12504783#0 12504783#1 12504783#2 743234027 334781294 27607832 27607883 334781295#0 334781295#1 -353272630#4 -353272630#3 -353272630#2 -353272630#1 -353272630#0 12511455#6 12518142#2 12526385#0 12526385#1 12526385#2"/>
    </vehicle>
    <vehicle id="bus52" type="bus" depart="1560.00">
        <route edges="-144846516#3 -144846516#2 -144846516#1 -144846516#0 -12511625 12511625 144846516#0 144846516#1 144846516#2 144846516#3 144846516#4 144846516#5 724068292#0 724068292#1 724068292#2 -473901211#1 -473901211#0 -473901225#3 -473901225#2 -473901225#1 -473901225#0 -724068296 -724068297 -724068295 -370814340#7 -370814340#6 -370814340#5 -370814340#4 -370814340#3 -370814340#2 -370814340#1 -370814340#0 351695510#0 351695510#1 351695512#0 351695512#1 351695512#2 351695514 351695513#0 12516873#0"/>
    </vehicle>
    <vehicle id="bus53" type="bus" depart="1590.00">
        <route edges="-12511211 12510955#8 12510955#9 12510955#10 12500732 32043901#2 32043901#3 32043901#4 32043901#5 -473901199 -684356191#2 -684356191#1 -684356191#0 -473901198 634816577 476161857 568800236#0 568800236#1 568800239 -33057329#4 -33057329#3 -33057329#2 -33057329#1 -33057329#0 -23965510 12508542 33056967 -751615567#5 -751615567#4 -751615567#3 -751615567#2 -751615567#1 -751615567#0 -751615566 -751615564 -751615565 -189090040#38 -750011609#12 -750011609#11 -750011609#10 -750011609#9 -750011609#8 -750011609#7 -750011609#6 -750011609#5 -750011609#4"/>
    </vehicle>
    <vehicle id="bus54" type="bus" depart="1620.00">