<?xml version="1.0" encoding="UTF-8"?>

<!-- generated on 2023-05-25 16:09:32 by Eclipse SUMO polyconvert Version 1.17.0
<configuration xmlns:xsi="http://www.w3.org/2001/XMLSchema-instance" xsi:noNamespaceSchemaLocation="http://sumo.dlr.de/xsd/polyconvertConfiguration.xsd">

    <input>
        <net-file value="map.net.xml"/>
        <osm-files value="map.osm"/>
    </input>

    <output>
        <output-file value="map.poly.xml"/>
    </output>

</configuration>
-->

<additional xmlns:xsi="http://www.w3.org/2001/XMLSchema-instance" xsi:noNamespaceSchemaLocation="http://sumo.dlr.de/xsd/additional_file.xsd">
    <location netOffset="-328117.39,-3836567.72" convBoundary="-936.85,-23629.79,11272.87,9703.94" origBoundary="-82.886517,34.443899,-82.754572,34.745944" projParameter="+proj=utm +zone=17 +ellps=WGS84 +datum=WGS84 +units=m +no_defs"/>

    <poly id="12837437" type="building" color="255,230,230" fill="1" layer="-1.00" shape="3332.724315,2060.563567 3274.364725,2082.055715 3272.388445,2076.733071 3250.128049,2084.928573 3242.647110,2064.784114 3269.669227,2054.837329 3273.477057,2065.085852 3291.531113,2058.431807 3283.153716,2035.873952 3299.414335,2029.885111 3307.830374,2052.553219 3327.104577,2045.455344 3332.724315,2060.563567"/>
    <poly id="13470725" type="tourism" color="207,245,201" fill="1" layer="-2.00" shape="2341.038107,2629.775699 2387.065788,2603.333778 2377.828340,2529.101586 2347.494935,2460.016888 2319.201786,2430.137205 2242.528087,2377.071611 2194.421842,2346.879968 2165.602478,2324.810074 2126.142127,2403.843797 2128.025202,2463.321925 2213.209145,2518.138305 2292.328096,2585.604128 2307.770092,2598.478638 2341.038107,2629.775699"/>
    <poly id="14054771" type="building" color="255,230,230" fill="1" layer="-1.00" shape="3589.368016,2287.258079 3596.910448,2286.210677 3597.437491,2288.974748 3604.456190,2288.358509 3603.958660,2285.704848 3609.209873,2284.665979 3603.685292,2237.569718 3583.277486,2240.294194 3585.410595,2256.231709 3584.021945,2256.478944 3585.412596,2271.409291 3587.415130,2271.150853 3589.368016,2287.258079"/>
    <poly id="14054774" type="building" color="255,230,230" fill="1" layer="-1.00" shape="3598.597419,2338.979814 3601.740746,2364.573521 3620.241233,2362.316565 3619.379542,2355.276026 3616.667515,2333.224766 3625.529096,2332.142222 3622.741005,2309.437759 3582.511356,2314.332354 3585.730202,2340.545987 3598.597419,2338.979814"/>
    <poly id="14054776" type="building" color="255,230,230" fill="1" layer="-1.00" shape="3715.737097,2383.496455 3725.554009,2382.030459 3734.804273,2380.652468 3731.007291,2355.381306 3730.162811,2349.782764 3729.462985,2345.080259 3729.066886,2342.458027 3737.101422,2341.257534 3731.615073,2304.767106 3731.103829,2301.359247 3734.568102,2300.841200 3738.900785,2300.196373 3735.478538,2277.381412 3734.279664,2269.437247 3724.270622,2270.928919 3713.703886,2272.497341 3718.637565,2305.314384 3719.493239,2311.023669 3711.970559,2312.148274 3717.050709,2345.961174 3717.937509,2351.869596 3711.136872,2352.881185 3715.737097,2383.496455"/>
    <poly id="14054781" type="building" color="255,230,230" fill="1" layer="-1.00" shape="3763.545363,2179.446839 3781.089230,2177.485035 3778.993634,2159.061590 3761.827216,2161.116369 3763.545363,2179.446839"/>
    <poly id="14054784" type="building" color="255,230,230" fill="1" layer="-1.00" shape="3300.541066,2359.290393 3306.416877,2358.328688 3337.316457,2353.969509 3336.292018,2345.056942 3335.128399,2335.048537 3303.003222,2339.552166 3297.975044,2340.254292 3300.541066,2359.290393"/>
    <poly id="14054785" type="building" color="255,230,230" fill="1" layer="-1.00" shape="3294.050264,2311.568390 3297.687996,2311.013722 3306.436791,2309.777607 3330.624878,2306.284445 3329.245407,2296.501881 3328.107886,2288.423490 3299.585945,2291.496611 3294.645272,2292.474507 3291.095508,2292.827862 3294.050264,2311.568390"/>
    <poly id="14054787" type="building" color="255,230,230" fill="1" layer="-1.00" shape="3287.355771,2264.238433 3290.686052,2263.911279 3301.790503,2262.177214 3323.931587,2259.009923 3322.955620,2249.741440 3321.924109,2239.941423 3287.496986,2244.387306 3284.386598,2244.710441 3287.355771,2264.238433"/>
    <poly id="14054791" type="building" color="255,230,230" fill="1" layer="-1.00" shape="3266.518638,2420.434377 3306.704797,2415.195226 3303.032066,2387.259157 3262.845786,2392.498319 3266.518638,2420.434377"/>
    <poly id="14054792" type="building" color="255,230,230" fill="1" layer="-1.00" shape="3248.673870,2341.754769 3254.123480,2341.544175 3287.307865,2336.322040 3285.971082,2326.871542 3284.708166,2317.952244 3251.575205,2323.484098 3246.074094,2323.384981 3248.673870,2341.754769"/>
    <poly id="14054793" type="building" color="255,230,230" fill="1" layer="-1.00" shape="3242.954228,2294.617805 3247.602472,2294.188872 3280.265134,2289.497715 3279.099513,2280.887292 3277.654871,2270.551186 3244.797666,2275.634222 3240.418811,2275.758672 3242.954228,2294.617805"/>
    <poly id="14055079" type="building" color="255,230,230" fill="1" layer="-1.00" shape="3481.354705,2474.601001 3492.341831,2550.277445 3498.858683,2549.293057 3503.430396,2590.859316 3518.635630,2589.361268 3515.321760,2560.963710 3501.684826,2471.666886 3481.354705,2474.601001"/>
    <poly id="142520122" type="building" color="255,230,230" fill="1" layer="-1.00" shape="4798.464174,4136.425640 4801.036354,4117.063135 4828.436782,4120.671502 4825.864546,4140.033997 4798.464174,4136.425640"/>
    <poly id="142520296" type="building" color="255,230,230" fill="1" layer="-1.00" shape="4828.426064,4144.347786 4839.950058,4129.982083 4863.426413,4148.650607 4851.902409,4163.016280 4828.426064,4144.347786"/>
    <poly id="142520314" type="building" color="255,230,230" fill="1" layer="-1.00" shape="4855.961615,4167.047756 4867.327076,4152.529634 4890.609054,4170.591536 4879.243582,4185.109628 4855.961615,4167.047756"/>
    <poly id="142520490" type="building" color="255,230,230" fill="1" layer="-1.00" shape="4913.976748,4135.219889 4892.779131,4140.152750 4888.598796,4122.354936 4909.796453,4117.422067 4913.976748,4135.219889"/>
    <poly id="142520550" type="building" color="255,230,230" fill="1" layer="-1.00" shape="4906.559689,4088.479174 4927.958935,4092.141086 4924.508349,4112.096375 4903.109147,4108.434473 4906.559689,4088.479174"/>
    <poly id="142520795" type="building" color="255,230,230" fill="1" layer="-1.00" shape="4882.055003,4089.932759 4882.416642,4082.581518 4896.481095,4082.992378 4896.000523,4091.366484 4882.055003,4089.932759"/>
    <poly id="142524245" type="amenity" color="237,199,199" fill="1" layer="-1.00" shape="5008.350984,3101.916380 5010.345417,3103.244926 5013.494220,3098.983057 5027.205268,3108.143194 5020.114174,3119.410574 5033.035213,3127.963714 5023.969735,3141.541229 4994.779368,3122.232286 5008.350984,3101.916380"/>
    <poly id="142524245#1" type="building" color="255,230,230" fill="1" layer="-1.00" shape="5008.350984,3101.916380 5010.345417,3103.244926 5013.494220,3098.983057 5027.205268,3108.143194 5020.114174,3119.410574 5033.035213,3127.963714 5023.969735,3141.541229 4994.779368,3122.232286 5008.350984,3101.916380"/>
    <poly id="142524248" type="kindergarten" color="237,199,199" fill="1" layer="-2.00" shape="5013.494220,3098.983057 5017.305255,3093.333464 5004.123012,3084.529894 5012.458749,3072.152698 5026.030806,3081.226593 5030.725374,3074.262942 5033.155825,3075.883159 5036.190494,3071.390376 5045.151806,3077.374661 5041.224858,3083.203853 5043.154556,3084.500294 5027.205268,3108.143194 5013.494220,3098.983057"/>
    <poly id="142524248#1" type="building" color="255,230,230" fill="1" layer="-1.00" shape="5013.494220,3098.983057 5017.305255,3093.333464 5004.123012,3084.529894 5012.458749,3072.152698 5026.030806,3081.226593 5030.725374,3074.262942 5033.155825,3075.883159 5036.190494,3071.390376 5045.151806,3077.374661 5041.224858,3083.203853 5043.154556,3084.500294 5027.205268,3108.143194 5013.494220,3098.983057"/>
    <poly id="144679968" type="building" color="255,230,230" fill="1" layer="-1.00" shape="3394.820539,2119.673545 3390.246079,2091.032777 3362.443383,2095.379520 3394.820539,2119.673545"/>
    <poly id="144821220" type="forest" color="140,196,107" fill="1" layer="-4.00" shape="3515.561279,2519.365080 3509.055045,2472.741646 3513.232788,2471.145388 3515.782539,2477.267523 3525.608696,2475.812232 3522.491449,2480.273761 3519.131786,2486.015614 3520.290743,2495.780033 3520.964099,2505.553317 3520.859675,2513.388124 3520.697138,2518.039795 3515.561279,2519.365080"/>
    <poly id="144821230" type="forest" color="140,196,107" fill="1" layer="-4.00" shape="3529.788724,2463.797962 3538.247126,2467.748612 3546.670138,2471.267220 3550.879515,2472.910071 3549.014123,2466.620110 3546.353343,2455.418595 3545.297057,2451.277343 3536.901862,2452.295983 3531.067250,2453.001611 3531.192127,2458.335910 3529.788724,2463.797962"/>
    <poly id="144846490" type="forest" color="140,196,107" fill="1" layer="-3.00" shape="4773.131762,2419.171939 4774.565313,2467.429982 4808.214459,2467.119851 4824.327042,2475.725878 4841.997154,2475.194994 4857.304640,2478.823058 4872.787447,2481.504925 4917.323835,2497.340467 4936.606204,2503.348613 4952.805944,2501.590861 4962.946002,2475.445805 4967.803754,2472.417794 4973.386846,2481.614069 4985.717402,2484.330987 5002.385116,2481.588525 5013.963897,2485.306510 5026.834480,2473.801455 5028.573853,2461.532577 5040.745426,2454.955124 5048.766072,2463.119917 5055.708903,2466.422565 5065.371843,2456.950444 5065.026764,2437.873881 5068.937720,2426.076087 5080.412770,2418.989842 5076.287562,2408.302643 5068.284687,2400.614575 5051.113221,2402.877857 5038.657808,2409.981875 5023.095278,2402.896590 5017.077722,2385.897510 5026.820381,2380.828488 5049.778924,2383.331024 5063.602702,2386.509205 5067.912939,2380.062907 5067.117245,2363.435321 5077.337065,2357.381395 5096.564686,2349.711170 5102.086689,2339.315470 5099.992827,2332.496843 5076.098140,2332.463027 5066.842040,2320.859023 5067.168356,2312.043967 5049.032534,2304.073227 5042.699522,2307.127877 5040.944950,2357.063372 5017.112328,2360.456837 4969.466886,2363.271709 4930.947721,2364.434924 4910.693203,2359.420706 4889.784559,2345.109952 4861.675805,2329.498426 4828.737696,2313.430819 4792.272425,2297.959771 4782.450010,2298.625902 4777.815685,2325.115190 4771.998527,2400.131825 4773.131762,2419.171939"/>
    <poly id="144846491" type="tourism" color="207,245,201" fill="1" layer="-2.00" shape="4900.977430,2202.973269 4912.831929,2205.698731 4925.249599,2202.067867 4944.198017,2200.227088 4961.881958,2199.418847 4967.181643,2193.453857 4953.577383,2191.281445 4922.918595,2192.790551 4905.711544,2192.602807 4900.977430,2202.973269"/>
    <poly id="144846492" type="tourism" color="207,245,201" fill="1" layer="-2.00" shape="4212.693243,2218.633755 4207.913787,2212.352285 4209.970722,2203.993858 4217.599372,2195.079257 4224.843256,2183.653159 4231.824936,2175.449298 4239.042504,2180.221961 4237.727409,2189.055062 4230.948566,2194.803301 4222.977642,2202.536979 4221.644824,2210.394072 4215.364928,2216.865504 4212.693243,2218.633755"/>
    <poly id="144846493" type="tourism" color="207,245,201" fill="1" layer="-2.00" shape="4877.825567,2200.452388 4863.770701,2200.729093 4866.155349,2196.769492 4876.226488,2193.635937 4884.123260,2195.445606 4877.825567,2200.452388"/>
    <poly id="144846495" type="tourism" color="207,245,201" fill="1" layer="-2.00" shape="4578.636207,2185.316504 4641.915851,2194.963932 4696.868900,2199.326333 4724.481708,2203.718573 4737.854498,2204.241738 4771.531621,2205.928061 4773.131080,2234.512234 4772.019241,2258.130744 4771.732955,2270.151460 4766.066342,2287.217892 4761.105108,2322.977165 4758.357078,2352.904918 4757.245333,2372.984235 4755.876726,2378.889214 4716.966989,2375.189842 4700.661001,2370.592673 4697.355853,2351.070484 4683.469733,2344.465717 4677.382968,2334.302399 4679.546022,2317.621165 4686.664255,2303.790187 4681.964057,2288.209715 4697.651375,2285.972658 4698.833786,2269.797376 4690.371284,2264.081702 4672.174793,2263.912338 4663.191265,2256.253471 4659.083002,2246.531360 4663.330787,2237.157001 4661.678262,2227.401458 4647.182235,2213.962377 4638.728297,2208.723662 4618.941473,2202.237079 4600.762756,2203.054952 4593.271775,2196.334313 4576.532799,2195.173455 4566.250915,2197.800810 4564.882953,2186.054168 4578.636207,2185.316504"/>
    <poly id="144846497" type="tourism" color="207,245,201" fill="1" layer="-2.00" shape="4888.209147,2122.446415 4884.092241,2112.236208 4889.824662,2102.835089 4893.569463,2092.493631 4892.906530,2082.709050 4887.835596,2074.479869 4872.596494,2063.528006 4864.346796,2053.370452 4856.562979,2047.176357 4847.632119,2042.933513 4846.255022,2031.675182 4850.281207,2026.243545 4862.472937,2031.381484 4869.637676,2046.917403 4885.671167,2063.269074 4903.796172,2076.176843 4918.081519,2088.621610 4915.059824,2100.935909 4902.464275,2110.949428 4894.047793,2118.912451 4888.209147,2122.446415"/>
    <poly id="144846501" type="tourism" color="207,245,201" fill="1" layer="-2.00" shape="4222.891674,2360.149964 4239.109053,2359.855148 4247.331664,2352.360983 4241.401154,2341.240941 4240.986345,2328.001400 4237.787063,2314.357593 4233.746397,2298.798602 4234.285639,2283.589050 4232.102203,2271.879446 4234.776906,2256.664360 4221.127072,2253.506422 4223.826096,2276.434495 4224.445376,2300.920352 4223.646385,2320.494848 4222.322377,2346.480537 4222.891674,2360.149964"/>
    <poly id="144846502" type="forest" color="140,196,107" fill="1" layer="-4.00" shape="4220.571515,2246.138541 4229.440208,2246.953651 4234.081729,2245.648859 4233.997254,2241.001712 4226.523761,2235.257374 4221.440803,2240.009554 4220.571515,2246.138541"/>
    <poly id="144846503" type="tourism" color="207,245,201" fill="1" layer="-2.00" shape="4701.445022,1963.326269 4724.836944,1979.056144 4743.545969,1996.856877 4768.634912,2008.118236 4787.601032,2023.928448 4796.620547,2033.062378 4785.544293,2045.988621 4772.955211,2046.238896 4754.035850,2043.630521 4728.911402,2030.406093 4710.881170,2012.127111 4697.110056,1995.712526 4687.726628,1982.691053 4685.925515,1975.356840 4689.193060,1966.000274 4694.051327,1962.483957 4701.445022,1963.326269"/>
    <poly id="144846504" type="tourism" color="207,245,201" fill="1" layer="-2.00" shape="4203.119281,2192.136138 4216.285485,2176.752498 4223.273325,2164.853982 4224.111375,2157.005885 4229.990995,2146.159329 4234.549625,2136.257650 4221.291075,2136.986831 4213.174943,2150.348171 4207.238676,2166.144008 4201.516335,2175.556504 4193.151019,2175.209336 4190.351925,2183.581261 4203.119281,2192.136138"/>
    <poly id="144846507" type="tourism" color="207,245,201" fill="1" layer="-2.00" shape="5301.553244,2276.975375 5315.968992,2285.524141 5325.376179,2289.270649 5328.741719,2284.805298 5320.738967,2277.117016 5307.338845,2270.502553 5301.553244,2276.975375"/>
    <poly id="144846510" type="tourism" color="207,245,201" fill="1" layer="-2.00" shape="5252.520743,2256.814625 5281.263668,2269.509064 5292.374653,2274.722537 5294.522025,2268.781402 5284.283159,2262.631317 5262.465287,2252.252573 5254.082700,2250.939530 5252.520743,2256.814625"/>
    <poly id="144846512" type="tourism" color="207,245,201" fill="1" layer="-2.00" shape="4185.674423,1854.730470 4174.420887,1857.875172 4167.909743,1851.137034 4164.763680,1840.432375 4190.726720,1781.224973 4206.847427,1775.051724 4234.221721,1766.233129 4232.180544,1780.005464 4222.183211,1797.805557 4210.313678,1821.020626 4200.141647,1839.289903 4193.464984,1850.672404 4185.674423,1854.730470"/>
    <poly id="144846513" type="parking" color="184,184,179" fill="1" layer="-1.00" shape="4183.835822,2051.040321 4213.620390,2057.377535 4246.113030,2068.991080 4293.371755,2089.700341 4323.568576,2110.165053 4345.553580,2120.072641 4361.253488,2127.598129 4382.204333,2135.072656 4391.372313,2125.109544 4410.152405,2130.648699 4413.378057,2145.756573 4434.631682,2151.739028 4470.752674,2158.272655 4541.906012,2166.411850 4703.006873,2185.513146 4768.390266,2184.816351 4775.040816,2171.970262 4778.151588,2157.501925 4777.695606,2143.464336 4782.195407,2128.260776 4783.271195,2116.813777 4782.614891,2101.836772 4785.987245,2093.709851 4784.156168,2087.751905 4783.726767,2081.757470 4782.383636,2075.413465 4759.716028,2075.358198 4712.094214,2051.746384 4687.396007,2029.172626 4674.319107,2002.516201 4658.524956,1982.710089 4641.747561,1968.835292 4628.850619,1962.223735 4615.573807,1962.464499 4607.652263,1986.594851 4596.700628,2005.876321 4573.399609,2022.452820 4563.348510,2037.812674 4553.792027,2053.152474 4545.790851,2072.879750 4555.393783,2087.383792 4543.302106,2098.376107 4529.214040,2107.440905 4515.090271,2115.041876 4472.204031,2108.963704 4476.532336,2085.852569 4470.178643,2061.004848 4463.984972,2044.974502 4458.001007,2030.904113 4385.297084,1980.345371 4366.937304,1943.966465 4346.815168,1945.807535 4329.089409,1953.929092 4317.118801,1962.500863 4303.847996,1935.326971 4289.960938,1911.570365 4276.485630,1873.150199 4255.375812,1821.155742 4252.555734,1801.147778 4259.866037,1788.311501 4292.100224,1771.527531 4327.476967,1774.845650 4356.090150,1762.066303 4403.551206,1767.095725 4418.516481,1779.061455 4423.765786,1797.083777 4464.046664,1794.876984 4486.263558,1799.854688 4508.480626,1804.843535 4525.255940,1807.967409 4472.860353,1748.197015 4534.311094,1693.239477 4574.647171,1739.027754 4605.593440,1764.405847 4617.439438,1767.131118 4610.125707,1754.027800 4591.088363,1733.326452 4571.546658,1713.122452 4554.299999,1701.708219 4542.650055,1692.111863 4527.737834,1683.573227 4502.117182,1653.683051 4491.497691,1637.233733 4480.842058,1636.472958 4469.688832,1654.759697 4474.037247,1677.691147 4470.467404,1688.062893 4447.464766,1694.349483 4413.253168,1705.743478 4301.940923,1742.069846 4266.004038,1756.358183 4239.939096,1800.911095 4235.276727,1814.697787 4224.583527,1831.023838 4211.893399,1863.551183 4206.001763,1881.309955 4206.633072,1898.894676 4209.302313,1910.096181 4197.322875,1918.180103 4189.090816,1925.175198 4188.105093,1951.620705 4181.914162,1962.994391 4187.818337,1972.650384 4196.856471,1982.770854 4201.575362,1999.327120 4212.677397,2005.504746 4218.693912,2011.763735 4232.634261,2003.655285 4247.658383,1991.632920 4262.335645,1978.174574 4277.439859,1970.555402 4289.383754,1978.171227 4291.495725,1986.453876 4223.818919,2022.931696 4203.699823,2035.013446 4190.062091,2042.117919 4183.835822,2051.040321"/>
    <poly id="144846514" type="forest" color="140,196,107" fill="1" layer="-4.00" shape="3831.470713,1636.575388 3908.375768,1666.339723 3912.658996,1659.438476 3894.156937,1644.575638 3893.248235,1639.976783 3895.854761,1637.643803 3882.928759,1619.428689 3877.744698,1622.163647 3855.124935,1610.715387 3853.003635,1607.481084 3847.308415,1607.817816 3841.379757,1614.460605 3831.470713,1636.575388"/>
    <poly id="144846519" type="tourism" color="207,245,201" fill="1" layer="-2.00" shape="5000.191335,2197.261077 5036.584090,2197.578963 5062.174123,2198.591645 5090.722756,2200.516125 5110.684560,2206.057492 5133.669970,2210.024266 5148.006386,2214.169645 5154.304005,2209.151961 5140.098978,2201.121071 5116.736409,2198.093050 5082.189648,2190.884969 5057.067892,2188.399267 5035.435562,2188.302423 5017.431982,2188.162164 5001.993097,2187.931155 4995.227055,2194.410822 5000.191335,2197.261077"/>
    <poly id="144846523" type="forest" color="140,196,107" fill="1" layer="-4.00" shape="4510.628531,2176.764920 4525.910300,2178.939531 4540.394814,2181.627893 4547.003055,2193.745429 4547.171890,2203.050807 4539.574103,2190.951225 4530.148745,2186.229492 4521.279836,2185.403000 4515.918428,2187.952219 4507.165360,2193.003823 4496.732720,2187.324071 4501.024966,2179.901488 4510.628531,2176.764920"/>
    <poly id="144846525" type="tourism" color="207,245,201" fill="1" layer="-2.00" shape="4095.073121,1904.307270 4114.457514,1900.703919 4128.194206,1870.809017 4140.910802,1848.321766 4146.299451,1825.590572 4154.581436,1811.760198 4171.054271,1780.595208 4172.218149,1763.443826 4162.480501,1742.086060 4150.545364,1734.470220 4141.838228,1705.771230 4140.176040,1677.876089 4137.328576,1656.881218 4144.349078,1637.182499 4153.914058,1622.319190 4158.197461,1614.408448 4154.218327,1585.113126 4156.830874,1566.470907 4170.291464,1549.584125 4180.614820,1539.622016 4196.659141,1539.308163 4221.711855,1537.876463 4232.574543,1530.855803 4234.686661,1521.486780 4230.127400,1514.224951 4216.479981,1520.841344 4203.795392,1525.964662 4182.273300,1522.949820 4164.066614,1522.304487 4144.793894,1526.549148 4132.639569,1534.114853 4126.324027,1538.146131 4113.603515,1541.794635 4108.300740,1538.007931 4114.838553,1528.558384 4127.055195,1524.419784 4127.434438,1518.055623 4128.316879,1512.647551 4144.032358,1511.385446 4165.710963,1513.931378 4179.968908,1513.672166 4187.795250,1511.566130 4185.434173,1507.237741 4172.441301,1505.487993 4124.859249,1502.458925 4086.979655,1501.195187 4029.399763,1498.814445 3965.312123,1498.971164 3931.858017,1498.115672 3904.011369,1498.644885 3846.601124,1505.082492 3821.382707,1506.984206 3813.645337,1513.970613 3828.892859,1514.192092 3873.061562,1509.471122 3902.998982,1506.474000 3919.792868,1510.572811 3942.416570,1510.649084 3965.472622,1507.788538 3976.080583,1513.974910 3972.274326,1520.900722 3950.622512,1519.830351 3925.898942,1521.722772 3913.205330,1526.846662 3892.735143,1527.241603 3880.465066,1528.441392 3875.344655,1534.170763 3877.333105,1547.725578 3877.498943,1562.367586 3875.450716,1578.747411 3872.977830,1588.921928 3873.310003,1594.074923 3878.101810,1597.482487 3888.028166,1592.919293 3889.106140,1580.639998 3893.875268,1572.232109 3910.304305,1573.918893 3921.347875,1568.791753 3926.700625,1565.754194 3936.082512,1568.035313 3940.887492,1579.719326 3950.790822,1583.455469 3964.829551,1580.725788 3973.200550,1571.786401 3981.222557,1562.808997 3976.271819,1551.171997 3973.169868,1542.907424 3978.250237,1534.471730 3989.477477,1529.862786 3998.503345,1530.208875 4008.865990,1531.984053 4014.882450,1538.720002 4020.484699,1549.391019 4024.188380,1563.524852 4028.786803,1582.501887 4039.786178,1592.575446 4053.665025,1598.691292 4061.281657,1611.766517 4068.225500,1615.068456 4079.310320,1620.269928 4081.944180,1630.018641 4083.980030,1643.173214 4076.269429,1651.634507 4064.962200,1651.840209 4056.181904,1655.916383 4054.608920,1668.204654 4057.331867,1682.345245 4052.616135,1693.692173 4040.506507,1703.698041 4032.849481,1715.098501 4035.892472,1729.699242 4045.680133,1744.720901 4057.325655,1763.114842 4068.837269,1774.654702 4073.998085,1787.774611 4077.790109,1807.276693 4082.080864,1836.055974 4084.117001,1866.862226 4089.825728,1883.400440 4095.073121,1904.307270"/>
    <poly id="144846528" type="tourism" color="207,245,201" fill="1" layer="-2.00" shape="4356.170666,2253.970298 4370.119226,2263.990626 4377.213554,2275.611056 4383.960793,2285.784390 4384.227494,2300.468926 4384.150701,2305.829059 4384.979900,2314.645379 4385.237538,2328.830818 4398.196921,2338.392075 4402.790836,2348.094169 4406.405764,2353.853238 4413.236042,2350.434078 4427.589642,2351.981874 4435.419030,2350.586013 4432.524824,2343.127455 4427.080244,2331.499221 4441.594666,2328.273402 4454.550881,2328.071462 4451.642009,2303.649379 4444.891545,2283.701634 4426.932466,2269.349425 4395.990422,2253.735233 4382.710939,2243.713810 4377.586631,2214.905193 4374.784602,2195.873207 4381.520271,2178.154686 4380.193118,2159.584080 4365.254961,2149.082443 4343.296843,2140.649920 4327.846101,2129.181318 4318.100274,2124.487804 4313.120936,2130.913344 4321.936224,2146.441090 4330.260227,2171.252936 4336.791988,2188.730467 4331.714933,2206.929250 4328.207758,2220.728204 4321.522185,2231.611527 4331.655787,2230.917065 4342.414425,2227.293353 4349.081950,2233.074612 4352.740103,2245.245613 4356.170666,2253.970298"/>
    <poly id="144846529" type="tourism" color="207,245,201" fill="1" layer="-2.00" shape="4650.949952,1809.082671 4688.317783,1852.484381 4731.446355,1898.688630 4742.684314,1905.807463 4741.562004,1897.994966 4689.094153,1841.209219 4664.271103,1811.781254 4658.237407,1804.057802 4650.949952,1809.082671"/>
    <poly id="144846530" type="forest" color="140,196,107" fill="1" layer="-4.00" shape="4675.133799,2372.519968 4683.693943,2383.625867 4695.627602,2391.231264 4715.307817,2391.861932 4731.065722,2393.528969 4737.117013,2401.740297 4674.093428,2396.525528 4669.949520,2385.339563 4675.133799,2372.519968"/>
    <poly id="144846531" type="tourism" color="207,245,201" fill="1" layer="-2.00" shape="4535.223210,2330.512571 4528.235794,2324.770276 4524.613526,2314.562327 4524.373815,2301.352904 4518.295499,2291.666598 4513.701379,2282.452622 4508.595072,2271.783444 4501.995379,2260.642111 4497.851515,2248.968044 4501.595815,2238.626406 4512.857823,2235.970093 4523.317167,2243.124969 4528.361483,2250.378115 4528.689939,2268.478684 4536.385291,2285.957409 4538.683345,2304.510405 4543.339615,2317.151523 4545.981688,2327.388358 4535.223210,2330.512571"/>
    <poly id="144846535" type="tourism" color="207,245,201" fill="1" layer="-2.00" shape="4790.107606,2271.050040 4785.185593,2259.911412 4787.067115,2238.808544 4789.176830,2219.676395 4789.017280,2210.870119 4795.800856,2205.366305 4803.715842,2207.674835 4799.651553,2217.067986 4794.944414,2228.414353 4792.781240,2244.596287 4793.082652,2261.232830 4795.504919,2269.975923 4790.107606,2271.050040"/>
    <poly id="144846538" type="tourism" color="207,245,201" fill="1" layer="-2.00" shape="4279.232110,2258.319385 4294.001313,2259.526589 4301.350288,2257.917454 4304.167094,2251.020840 4302.541085,2242.241192 4290.668671,2238.540498 4282.807264,2238.683357 4279.548814,2249.016268 4279.232110,2258.319385"/>
    <poly id="144846539" type="tourism" color="207,245,201" fill="1" layer="-2.00" shape="4238.218100,2229.663860 4234.679658,2224.591332 4237.518896,2218.426538 4245.677815,2211.454989 4250.729958,2205.005894 4246.526824,2217.319751 4242.095585,2226.664376 4238.218100,2229.663860"/>
    <poly id="144846542" type="tourism" color="207,245,201" fill="1" layer="-2.00" shape="4612.409080,2357.015416 4601.914526,2347.908424 4600.155321,2332.274641 4594.995826,2318.666295 4593.272217,2304.995626 4577.531520,2304.793001 4565.828245,2309.898075 4555.881486,2303.710189 4557.602887,2289.977020 4569.528122,2297.105347 4587.149716,2292.869251 4585.488061,2282.614621 4577.422682,2271.510922 4569.940280,2265.766480 4558.536233,2260.592454 4556.830582,2247.409630 4564.541062,2238.948729 4581.271109,2239.621557 4587.994741,2258.105374 4594.063948,2267.292626 4612.887868,2275.272207 4626.288335,2281.874589 4636.110766,2281.208292 4647.567722,2289.809706 4649.786222,2303.482502 4649.601978,2320.616028 4648.472762,2339.719355 4638.783856,2347.239734 4626.117625,2353.826695 4612.409080,2357.015416"/>
    <poly id="144846544" type="tourism" color="207,245,201" fill="1" layer="-2.00" shape="5166.282307,2218.731995 5190.748869,2228.585578 5203.627568,2234.232974 5205.792876,2228.779656 5194.344885,2221.153741 5174.072933,2214.674760 5166.697145,2214.808087 5166.282307,2218.731995"/>
    <poly id="150583711" type="building" color="255,230,230" fill="1" layer="-1.00" shape="3580.238642,3018.879883 3586.919020,3037.918602 3568.832585,3044.206641 3562.152173,3025.167933 3580.238642,3018.879883"/>
    <poly id="176378098" type="amenity" color="237,199,199" fill="1" layer="-1.00" shape="3693.825175,2926.839844 3690.124030,2917.876225 3655.973963,2931.846216 3659.675137,2940.809822 3693.825175,2926.839844"/>
    <poly id="176378098#1" type="building" color="255,230,230" fill="1" layer="-1.00" shape="3693.825175,2926.839844 3690.124030,2917.876225 3655.973963,2931.846216 3659.675137,2940.809822 3693.825175,2926.839844"/>
    <poly id="176378269" type="building" color="255,230,230" fill="1" layer="-1.00" shape="4060.578500,3680.191158 4071.447926,3677.718858 4066.122948,3654.527931 4055.253496,3657.000237 4060.578500,3680.191158"/>
    <poly id="176378315" type="amenity" color="237,199,199" fill="1" layer="-1.00" shape="3918.617361,3694.770163 3902.753364,3654.485719 3931.953260,3643.080813 3947.826304,3683.365135 3918.617361,3694.770163"/>
    <poly id="176378315#1" type="building" color="255,230,230" fill="1" layer="-1.00" shape="3918.617361,3694.770163 3902.753364,3654.485719 3931.953260,3643.080813 3947.826304,3683.365135 3918.617361,3694.770163"/>
    <poly id="176378690" type="amenity" color="237,199,199" fill="1" layer="-1.00" shape="3738.491737,2964.368666 3753.150124,2954.526595 3743.327003,2940.038457 3728.677764,2949.880376 3738.491737,2964.368666"/>
    <poly id="176378690#1" type="building" color="255,230,230" fill="1" layer="-1.00" shape="3738.491737,2964.368666 3753.150124,2954.526595 3743.327003,2940.038457 3728.677764,2949.880376 3738.491737,2964.368666"/>
    <poly id="177983745" type="building" color="255,230,230" fill="1" layer="-1.00" shape="4244.551384,2263.443066 4265.689170,2263.058869 4266.032761,2254.731596 4258.131160,2253.166623 4257.500367,2258.803104 4251.595307,2258.666350 4251.992308,2253.278202 4245.817481,2251.914842 4244.551384,2263.443066"/>
    <poly id="177983747" type="building" color="255,230,230" fill="1" layer="-1.00" shape="4260.779674,2168.931870 4263.364244,2175.985507 4267.138993,2174.896191 4282.447926,2170.490750 4279.302080,2159.786057 4273.207215,2162.825820 4274.775910,2167.945254 4269.652869,2169.991024 4268.088808,2165.126685 4260.779674,2168.931870"/>
    <poly id="177983748" type="building" color="255,230,230" fill="1" layer="-1.00" shape="4245.989268,2247.751205 4248.227087,2235.728247 4252.422919,2236.628317 4268.934004,2241.387412 4267.419024,2249.813637 4259.045113,2248.989497 4259.684778,2243.841023 4254.260976,2242.952174 4253.135612,2248.608739 4245.989268,2247.751205"/>