<?xml version="1.0" encoding="UTF-8"?>

<!-- generated on 2023-05-25 16:18:30.389012 by randomTrips.py v1_17_0+0000-737931d58da
<configuration>
    <net-file value="map.net.xml"/>
    <output-trip-file value="trailer_trips.xml"/>
    <route-file value="trailer_routes.rou.xml"/>
    <trip-attributes value="color=&quot;223,179,180&quot; accel=&quot;0.5&quot;"/>
    <vehicle-class value="trailer"/>
    <period value="150.0"/>
</configuration>
-->

<routes xmlns:xsi="http://www.w3.org/2001/XMLSchema-instance" xsi:noNamespaceSchemaLocation="http://sumo.dlr.de/xsd/routes_file.xsd">
    <vType id="trailer" vClass="trailer" color="223,179,180" accel="0.5"/>
    <trip id="0" depart="0.00" from="12515825#0" to="-12504859#1" type="trailer"/>
    <trip id="1" depart="150.00" from="-189090040#15" to="-12525041#2" type="trailer"/>
    <trip id="2" depart="300.00" from="144679983#0" to="12520167#0" type="trailer"/>
    <trip id="3" depart="450.00" from="517104480#1" to="-12509907#2" type="trailer"/>
    <trip id="4" depart="600.00" from="-724068298#7" to="-12505016#1" type="trailer"/>
    <trip id="5" depart="750.00" from="-12521280#6" to="12506334" type="trailer"/>
    <trip id="6" depart="900.00" from="-12504859#4" to="-12520167#5" type="trailer"/>
    <trip id="7" depart="1050.00" from="12516691#7" to="12509610#0" type="trailer"/>
    <trip id="8" depart="1200.00" from="-12522474#2" to="12512702#0" type="trailer"/>
    <trip id="9" depart="1350.00" from="27272673#1" to="-12497370" type="trailer"/>
    <trip id="10" depart="1500.00" from="27271744#0" to="12523462#2" type="trailer"/>
    <trip id="11" depart="1650.00" from="-28693981#0" to="-12515987#3" type="trailer"/>
    <trip id="12" depart="1800.00" from="724068303" to="-334781293#8" type="trailer"/>
    <trip id="13" depart="1950.00" from="-12510104#0" to="-12510292#3" type="trailer"/>
    <trip id="14" depart="2100.00" from="334781293#3" to="12514598#15" type="trailer"/>
    <trip id="15" depart="2250.00" from="27271744#3" to="144679972#1" type="trailer"/>
    <trip id="16" depart="2400.00" from="12507596#4" to="750011609#15" type="trailer"/>
    <trip id="17" depart="2550.00" from="-517104475" to="12509898#6" type="trailer"/>
    <trip id="18" depart="2700.00" from="28151997#0" to="12514941" type="trailer"/>
    <trip id="19" depart="2850.00" from="351695511#0" to="12511455#2" type="trailer"/>
    <trip id="20" depart="3000.00" from="12523216#1" to="-12506236#0" type="trailer"/>
    <trip id="21" depart="3150.00" from="-12523216#0" to="-23969821#3" type="trailer"/>
    <trip id="22" depart="3300.00" from="-12509452#1" to="-12525901#2" type="trailer"/>
    <trip id="23" depart="3450.00" from="-12510539#2" to="-195316373#1" type="trailer"/>
</routes>
