<?xml version="1.0" encoding="UTF-8"?>

<!-- generated on 2023-05-25 16:18:31.811914 by randomTrips.py v1_17_0+0000-737931d58da
<configuration>
    <net-file value="map.net.xml"/>
    <output-trip-file value="trailer_trips.xml"/>
    <route-file value="trailer_routes.rou.xml"/>
    <trip-attributes value="color=&quot;223,179,180&quot; accel=&quot;0.5&quot;"/>
    <vehicle-class value="trailer"/>
    <period value="150.0"/>
</configuration>
-->

<!-- generated on 2023-05-25 16:18:31 by Eclipse SUMO duarouter Version 1.17.0
<configuration xmlns:xsi="http://www.w3.org/2001/XMLSchema-instance" xsi:noNamespaceSchemaLocation="http://sumo.dlr.de/xsd/duarouterConfiguration.xsd">

    <input>
        <net-file value="map.net.xml"/>
        <route-files value="trailer_trips.xml"/>
    </input>

    <output>
        <output-file value="trailer_routes.rou.xml"/>
        <alternatives-output value="NUL"/>
    </output>

    <time>
        <begin value="0"/>
        <end value="3600.0"/>
    </time>

    <report>
        <no-warnings value="true"/>
        <ignore-errors value="true"/>
        <no-step-log value="true"/>
    </report>

</configuration>
-->

<routes xmlns:xsi="http://www.w3.org/2001/XMLSchema-instance" xsi:noNamespaceSchemaLocation="http://sumo.dlr.de/xsd/routes_file.xsd">
    <vType id="trailer" vClass="trailer" color="223,179,180" accel="0.5"/>
    <vehicle id="trailer0" type="trailer" depart="0.00">
        <route edges="12515825#0 12518562#0 12518562#1 12518562#2 12506643#1 12506643#2 -12514598#12 -12514598#11 -12514598#10 -12514598#9 -12514598#8 -27582617#7 -27582617#6 -27582617#5 -27582617#4 -27582617#3 -27582617#2 -27582617#1 12504859#0 12504859#1 -12504859#1"/>
    </vehicle>
    <vehicle id="trailer1" type="trailer" depart="150.00">
        <route edges="-189090040#15 -189090040#14 -189090040#13 -189090040#12 -189090040#11 -189090040#10 -189090040#9 -189090040#8 -189090040#7 -189090040#6 -189090040#5 -189090040#4 -189090040#3 -189090040#2 -189090040#1 -189090040#0 -12512579#4 12512579#4 189090040#0 189090040#1 189090040#2 189090040#3 189090040#4 189090040#5 189090040#6 189090040#7 189090040#8 189090040#9 189090040#10 189090040#11 189090040#12 189090040#13 189090040#14 189090040#15 189090040#16 189090040#17 189090040#18 189090040#19 189090040#20 189090040#21 189090040#22 189090040#23 189090040#24 189090040#25 189090040#26 189090040#27 189090040#28 189090040#29 189090040#30 189090040#31 189090040#32 189090040#33 189090040#34 189090040#35 189090040#36 189090040#37 -750011609#12 -750011609#11 -750011609#10 -750011609#9 -750011609#8 -750011609#7 -750011609#6 -750011609#5 -750011609#4 -750011609#3 -750011609#2 -750011609#1 -750011609#0 -12514813#15 -12514813#14 -12514813#13 12516691#0 12516691#1 12525041#0 12525041#1 12525041#2 -12525041#2"/>
    </vehicle>
    <vehicle id="trailer2" type="trailer" depart="300.00">
        <route edges="144679983#0 144679983#1 26939234#1 28660990#0 28660990#1 12509898#0 12509898#1 12509898#2 12509898#3 12509898#4 12509898#5 12509898#6 144679984#0 144679984#1 144679984#2 144679984#3 144679984#4 144679984#5 144679984#6 724068289#0 724068289#1 724068289#2 724068289#3 724068291#0 724068291#1 12860790 -144846516#5 -144846516#4 -144846516#3 -144846516#2 -144846516#1 -144846516#0 -12511625 -565169245 565169246 -144846532#1 -144846532#0 -12517561 12525680 27603088#0 27603088#1 27603088#2 27603088#3 27603088#4 27603088#5 27603088#6 27603088#7 27603088#8 12504783#0 12504783#1 12504783#2 743234027 334781294 27607832 27607883 334781295#0 334781295#1 334781295#2 334781295#3 334781295#4 334781295#5 334781295#6 334781295#7 334781295#8 334781295#9 334781295#10 334781295#11 12520167#0"/>
    </vehicle>
    <vehicle id="trailer4" type="trailer" depart="600.00">
        <route edges="-724068298#7 -724068298#6 570806410#0 570806410#1 370814340#6 370814340#7 724068295 724068297 724068296 473901225#0 473901225#1 473901225#2 473901225#3 473901211#0 473901211#1 -724068292#2 -724068292#1 -724068292#0 -144846516#5 -144846516#4 -144846516#3 -144846516#2 -144846516#1 -144846516#0 -12511625 -565169245 565169246 -144846532#1 -144846532#0 -12517561 12525680 27603088#0 27603088#1 27603088#2 27603088#3 27603088#4 27603088#5 27603088#6 27603088#7 27603088#8 12504783#0 12504783#1 12507530#0 12505016#0 12505016#1 -12505016#1"/>
    </vehicle>
    <vehicle id="trailer5" type="trailer" depart="750.00">
        <route edges="-12521280#6 -12521280#5 -12521280#4 -12521280#3 -12505118#0 -12520592#0 -12509269#1 -12509269#0 12514813#13 12514813#14 12514813#15 750011609#0 750011609#1 750011609#2 750011609#3 750011609#4 750011609#5 750011609#6 750011609#7 750011609#8 750011609#9 750011609#10 750011609#11 750011609#12 750011609#13 750011609#14 750011609#15 750011609#16 750011609#17 -837805596#1 -837805596#0 837805597 12526444#0 12526444#1 12526444#2 12526444#3 -12506334 12506334"/>
    </vehicle>
    <vehicle id="trailer6" type="trailer" depart="900.00">
        <route edges="-12504859#4 12504859#4 12504859#5 -724068309#1 -724068309#0 -724068307 -724068304#1 -724068304#0 -724068303 -334781277 -724068302#4 -724068302#3 -724068302#2 -724068302#1 -724068302#0 -724068301#5 -724068301#4 -724068301#3 -724068301#2 -724068301#1 -724068301#0 -334781276 -565169245 565169246 -144846532#1 -144846532#0 -12517561 12525680 27603088#0 27603088#1 27603088#2 27603088#3 27603088#4 27603088#5 27603088#6 27603088#7 27603088#8 12504783#0 12504783#1 12504783#2 743234027 334781294 27607832 27607883 334781295#0 334781295#1 334781295#2 334781295#3 334781295#4 334781295#5 334781295#6 334781295#7 334781295#8 334781295#9 334781295#10 334781295#11 334781295#12 334781295#13 334781295#14 334781295#15 -12520167#6 -12520167#5"/>
    </vehicle>
    <vehicle id="trailer7" type="trailer" depart="1050.00">
        <route edges="12516691#7 12516691#8 12516691#9 -12516691#9 -12516691#8 -12516691#7 -12516691#6 -12516691#5 -12516691#4 -12516691#3 -12516691#2 -12516691#1 -12516691#0 12514813#13 12514813#14 12514813#15 750011609#0 750011609#1 750011609#2 750011609#3 750011609#4 750011609#5 750011609#6 750011609#7 750011609#8 750011609#9 750011609#10 750011609#11 750011609#12 750011609#13 750011609#14 750011609#15 750011609#16 750011609#17 837805596#2 -12514822#2 -12514822#1 -12514822#0 -12518084#6 -12518084#5 12509610#0"/>
    </vehicle>
    <vehicle id="trailer8" type="trailer" depart="1200.00">
        <route edges="-12522474#2 12526748 12514341#1 12504783#0 12504783#1 12504783#2 743234027 334781294 27607832 27607883 189090054 -189090039#6 12512702#0"/>
    </vehicle>
    <vehicle id="trailer10" type="trailer" depart="1500.00">
        <route edges="27271744#0 27271744#1 27271744#2 27271744#3 27271744#4 27271744#5 -27271744#5 -27271744#4 -27271744#3 -27271744#2 -27271744#1 -27271744#0 27603088#5 27603088#6 27603088#7 27603088#8 -12514341#1 -12514341#0 -12520533#0 12522474#3 12523462#2"/>
    </vehicle>
    <vehicle id="trailer11" type="trailer" depart="1650.00">
        <route edges="-28693981#0 -750011609#18 -750011609#17 -750011609#16 -750011609#15 -750011609#14 -750011609#13 -189090040#37 -189090040#36 -189090040#35 -189090040#34 -189090040#33 -189090040#32 -189090040#31 -189090040#30 -189090040#29 -189090040#28 -189090040#27 -189090040#26 -189090040#25 -189090040#24 -189090040#23 -189090040#22 -189090040#21 -189090040#20 -189090040#19 -189090040#18 -189090040#17 -189090040#16 -189090040#15 -189090040#14 -189090040#13 -189090040#12 -189090040#11 -189090040#10 -189090040#9 -189090040#8 -189090040#7 -189090040#6 -189090040#5 -189090040#4 -189090040#3 -189090040#2 -189090040#1 -189090040#0 -12512579#4 -12512579#3 -12512579#2 -12512579#1 -12512579#0 -12524576 24018678 474204619 629297643 189090044#0 189090044#1 629297639 27272673#0 629301441 27272860 192976882 19801912#0 -12515987#6 -12515987#5 -12515987#4 -12515987#3"/>
    </vehicle>
    <vehicle id="trailer12" type="trailer" depart="1800.00">
        <route edges="724068303 724068304#0 724068304#1 -12514206#6 -12514206#5 -12514206#4 -12514206#3 -12514206#2 -12514206#1 -12514206#0 12514206#0 12514206#1 12514206#2 12514206#3 12514206#4 12514206#5 12514206#6 -724068304#1 -724068304#0 -724068303 -334781277 334781293#0 334781293#1 334781293#2 334781293#3 334781293#4 334781293#5 334781293#6 334781293#7 334781293#8 334781293#9 334781280#0 334781280#1 334781280#2 26956240#0 26956240#1 -334781293#9 -334781293#8"/>
    </vehicle>
    <vehicle id="trailer13" type="trailer" depart="1950.00">
        <route edges="-12510104#0 -33055786#0 -33056968#1 -33056968#0 33056967 -751615567#5 -751615567#4 -751615567#3 -751615567#2 -751615567#1 -751615567#0 -751615566 -751615564 -751615565 -189090040#38 750011609#13 750011609#14 750011609#15 750011609#16 750011609#17 837805596#2 837805596#3 837805596#4 837805596#5 12510292#0 12510292#1 -12510292#4 -12510292#3"/>
    </vehicle>
    <vehicle id="trailer14" type="trailer" depart="2100.00">
        <route edges="334781293#3 334781293#4 334781293#5 334781293#6 334781293#7 334781293#8 334781293#9 334781280#0 334781280#1 334781280#2 26956240#0 26956240#1 -334781293#9 -334781293#8 -334781293#7 -334781293#6 -334781293#5 -334781293#4 -334781293#3 -334781293#2 -334781293#1 -334781293#0 -724068302#4 -724068302#3 -724068302#2 -724068302#1 -724068302#0 -724068301#5 -724068301#4 -724068301#3 -724068301#2 -724068301#1 -724068301#0 -334781276 -565169245 565169246 -144846532#1 144846518 4526699#1 568800237#2 634816586 473901198 684356191#0 684356191#1 684356191#2 473901199 12514598#0 12514598#1 12514598#2 12514598#3 12514598#4 12514598#5 12514598#6 12514598#7 12514598#8 12514598#9 12514598#10 12514598#11 12514598#12 12514598#13 12514598#14 12514598#15"/>
    </vehicle>
    <vehicle id="trailer15" type="trailer" depart="2250.00">
        <route edges="27271744#3 27271744#4 27271744#5 -27271744#5 -27271744#4 -27271744#3 -27271744#2 -27271744#1 -27271744#0 -27603088#4 -27603088#3 -27603088#2 -27603088#1 -27603088#0 -12525680 12517561 144846532#0 144846532#1 568800234#0 568800234#1 568800234#2 568800234#3 565169245 12511625 144846516#0 144846516#1 144846516#2 144846516#3 144846516#4 144846516#5 -12860790 -724068291#1 -724068291#0 -724068289#3 -724068289#2 -724068289#1 -724068289#0 -144679984#6 -144679984#5 -144679984#4 -144679984#3 -144679984#2 -144679984#1 -144679984#0 -12509898#6 -12509898#5 -12509898#4 -12509898#3 -12509898#2 -12509898#1 -12509898#0 144679972#0 144679972#1"/>
    </vehicle>
    <vehicle id="trailer16" type="trailer" depart="2400.00">
        <route edges="12507596#4 12507596#5 -12514598#5 -12514598#4 -12514598#3 -12514598#2 -12514598#1 -12514598#0 -473901199 -684356191#2 -684356191#1 -684356191#0 -473901198 634816577 476161857 568800236#0 568800236#1 568800239 -33057329#4 -33057329#3 -33057329#2 -33057329#1 -33057329#0 -23965510 12508542 33056967 -751615567#5 -751615567#4 -751615567#3 -751615567#2 -751615567#1 -751615567#0 -751615566 -751615564 -751615565 -189090040#38 750011609#13 750011609#14 750011609#15"/>
    </vehicle>
    <vehicle id="trailer18" type="trailer" depart="2700.00">
        <route edges="28151997#0 -28151997#0 12505817#2 12505817#3 837805597 12514941"/>
    </vehicle>
    <vehicle id="trailer19" type="trailer" depart="2850.00">
        <route edges="351695511#0 351695511#1 351695511#2 351695511#3 629301440#1 629301440#2 -629297639 -189090044#1 -189090044#0 629297644#0 629297644#1 629297644#2 -474204619 -24018678 12524576 12512579#0 12512579#1 12512579#2 12512579#3 12512579#4 189090040#0 189090040#1 189090040#2 189090040#3 189090040#4 189090040#5 189090040#6 189090040#7 189090040#8 189090040#9 189090040#10 189090040#11 189090040#12 189090040#13 189090040#14 189090040#15 189090040#16 189090040#17 189090040#18 189090040#19 189090040#20 189090040#21 189090040#22 189090040#23 189090040#24 189090040#25 189090040#26 189090040#27 189090040#28 189090040#29 189090040#30 189090040#31 189090040#32 189090040#33 189090040#34 189090040#35 189090040#36 189090040#37 189090040#38 751615565 751615564 751615566 751615567#0 751615567#1 751615567#2 751615567#3 751615567#4 751615567#5 -33056967 33056968#0 33056968#1 33055786#0 33055786#1 189090039#0 189090039#1 189090039#2 189090039#3 189090039#4 189090039#5 189090039#6 12500145 743234028 334781294 27607832 27607883 334781295#0 334781295#1 334781295#2 334781295#3 334781295#4 334781295#5 334781295#6 334781295#7 334781295#8 334781295#9 -12525913#1 -12525913#0 12511455#2"/>
    </vehicle>
    <vehicle id="trailer21" type="trailer" depart="3150.00">
        <route edges="-12523216#0 12523216#0 12523216#1 -23969821#6 -23969821#5 -23969821#4 -23969821#3"/>
    </vehicle>
    <vehicle id="trailer22" type="trailer" depart="3300.00">
        <route edges="-12509452#1 -12509452#0 12509452#0 12509452#1 12509452#2 -12515004#1 -12515004#0 -12517426#1 -12517426#0 12514813#3 12514813#4 12514813#5 12514813#6 12514813#7 12514813#8 12514813#9 12514813#10 12514813#11 12514813#12 12514813#13 12514813#14 12514813#15 750011609#0 750011609#1 750011609#2 750011609#3 750011609#4 750011609#5 750011609#6 750011609#7 750011609#8 750011609#9 750011609#10 750011609#11 750011609#12 189090040#38 751615565 751615564 751615566 751615567#0 751615567#1 751615567#2 751615567#3 751615567#4 751615567#5 -33056967 33056968#0 33056968#1 33055786#0 33055786#1 189090039#0 189090039#1 189090039#2 189090039#3 189090039#4 189090039#5 189090039#6 12500145 743234028 334781294 27607832 27607883 334781295#0 334781295#1 -12525901#6 -12525901#5 -12525901#4 -12525901#3 -12525901#2"/>
    </vehicle>
    <vehicle id="trailer23" type="trailer" depart="3450.00">
        <route edges="-12510539#2 12510539#2 -189090039#0 -33055786#1 -33055786#0 -33056968#1 -33056968#0 -12508542 23965510 33057329#0 33057329#1 33057329#2 33057329#3 33057329#4 568800237#0 12498752 144846532#0 144846532#1 -12517094#2 -12517094#1 -12517094#0 -614945676 195316373#0 195316373#1 -195316373#1"/>
    </vehicle>
</routes>
