<?xml version="1.0" encoding="UTF-8"?>

<!-- generated on 2023-05-25 16:18:12.070882 by randomTrips.py v1_17_0+0000-737931d58da
<configuration>
    <net-file value="map.net.xml"/>
    <output-trip-file value="truck_trips.xml"/>
    <route-file value="truck_routes.rou.xml"/>
    <trip-attributes value="color=&quot;179,223,183&quot;"/>
    <vehicle-class value="truck"/>
    <period value="15.0"/>
</configuration>
-->

<routes xmlns:xsi="http://www.w3.org/2001/XMLSchema-instance" xsi:noNamespaceSchemaLocation="http://sumo.dlr.de/xsd/routes_file.xsd">
    <vType id="truck" vClass="truck" color="179,223,183"/>
    <trip id="0" depart="0.00" from="12515825#0" to="-12504859#1" type="truck"/>
    <trip id="1" depart="15.00" from="-189090040#15" to="-12525041#2" type="truck"/>
    <trip id="2" depart="30.00" from="144679983#0" to="12520167#0" type="truck"/>
    <trip id="3" depart="45.00" from="517104480#1" to="-12509907#2" type="truck"/>
    <trip id="4" depart="60.00" from="-724068298#7" to="-12505016#1" type="truck"/>
    <trip id="5" depart="75.00" from="-12521280#6" to="12506334" type="truck"/>
    <trip id="6" depart="90.00" from="-12504859#4" to="-12520167#5" type="truck"/>
    <trip id="7" depart="105.00" from="12516691#7" to="12509610#0" type="truck"/>
    <trip id="8" depart="120.00" from="-12522474#2" to="12512702#0" type="truck"/>
    <trip id="9" depart="135.00" from="27272673#1" to="-12497370" type="truck"/>
    <trip id="10" depart="150.00" from="27271744#0" to="12523462#2" type="truck"/>
    <trip id="11" depart="165.00" from="-28693981#0" to="-12515987#3" type="truck"/>
    <trip id="12" depart="180.00" from="724068303" to="-334781293#8" type="truck"/>
    <trip id="13" depart="195.00" from="-12510104#0" to="-12510292#3" type="truck"/>
    <trip id="14" depart="210.00" from="334781293#3" to="12514598#15" type="truck"/>
    <trip id="15" depart="225.00" from="27271744#3" to="144679972#1" type="truck"/>
    <trip id="16" depart="240.00" from="12507596#4" to="750011609#15" type="truck"/>
    <trip id="17" depart="255.00" from="-517104475" to="12509898#6" type="truck"/>
    <trip id="18" depart="270.00" from="28151997#0" to="12514941" type="truck"/>
    <trip id="19" depart="285.00" from="351695511#0" to="12511455#2" type="truck"/>
    <trip id="20" depart="300.00" from="12523216#1" to="-12506236#0" type="truck"/>
    <trip id="21" depart="315.00" from="-12523216#0" to="-23969821#3" type="truck"/>
    <trip id="22" depart="330.00" from="-12509452#1" to="-12525901#2" type="truck"/>
    <trip id="23" depart="345.00" from="-12510539#2" to="-195316373#1" type="truck"/>
    <trip id="24" depart="360.00" from="12515414#1" to="-517104480#0" type="truck"/>
    <trip id="25" depart="375.00" from="-370814340#6" to="-12522498" type="truck"/>
    <trip id="26" depart="390.00" from="-144846516#3" to="724068288#3" type="truck"/>
    <trip id="27" depart="405.00" from="12516691#3" to="12514813#0" type="truck"/>
    <trip id="28" depart="420.00" from="-12516691#6" to="13475393#6" type="truck"/>
    <trip id="29" depart="435.00" from="-12515987#5" to="-713420429#2" type="truck"/>
    <trip id="30" depart="450.00" from="784874387#1" to="12516691#9" type="truck"/>
    <trip id="31" depart="465.00" from="12509470#1" to="12520676" type="truck"/>
    <trip id="32" depart="480.00" from="33057329#1" to="19801911" type="truck"/>
    <trip id="33" depart="495.00" from="-12523462#1" to="-12505036#3" type="truck"/>
    <trip id="34" depart="510.00" from="-27199515#7" to="-189090040#29" type="truck"/>
    <trip id="35" depart="525.00" from="-12520175#0" to="724068294#0" type="truck"/>
    <trip id="36" depart="540.00" from="473901198" to="-27603088#7" type="truck"/>
    <trip id="37" depart="555.00" from="12517184#0" to="-724068289#2" type="truck"/>
    <trip id="38" depart="570.00" from="671983232#5" to="12497370" type="truck"/>
    <trip id="39" depart="585.00" from="-144679984#6" to="-144679972#2" type="truck"/>
    <trip id="40" depart="600.00" from="12509610#5" to="-189090040#19" type="truck"/>
    <trip id="41" depart="615.00" from="12510955#5" to="565169247" type="truck"/>
    <trip id="42" depart="630.00" from="-717388482#1" to="-12524698" type="truck"/>
    <trip id="43" depart="645.00" from="847327156#3" to="12506776#0" type="truck"/>
    <trip id="44" depart="660.00" from="-12509907#2" to="-12506334" type="truck"/>
    <trip id="45" depart="675.00" from="-12510960#2" to="12515825#0" type="truck"/>
    <trip id="46" depart="690.00" from="24018678" to="-724068309#3" type="truck"/>
    <trip id="47" depart="705.00" from="-12507887#0" to="-717388482#1" type="truck"/>
    <trip id="48" depart="720.00" from="847327156#0" to="12508531#4" type="truck"/>
    <trip id="49" depart="735.00" from="750011609#0" to="351695511#1" type="truck"/>
    <trip id="50" depart="750.00" from="-12502975#1" to="12526385#2" type="truck"/>
    <trip id="51" depart="765.00" from="12518945" to="12509269#3" type="truck"/>
    <trip id="52" depart="780.00" from="-144846516#3" to="12516873#0" type="truck"/>
    <trip id="53" depart="795.00" from="-12511211" to="-750011609#4" type="truck"/>
    <trip id="54" depart="810.00" from="-750011609#4" to="724068302#2" type="truck"/>
    <trip id="55" depart="825.00" from="473901189" to="-189090040#2" type="truck"/>
    <trip id="56" depart="840.00" from="12504783#2" to="-12517602#1" type="truck"/>
    <trip id="57" depart="855.00" from="671983232#1" to="370814340#3" type="truck"/>
    <trip id="58" depart="870.00" from="-23968302#1" to="12516691#7" type="truck"/>
    <trip id="59" depart="885.00" from="12513610#1" to="-12515537" type="truck"/>
    <trip id="60" depart="900.00" from="189090040#6" to="12509340" type="truck"/>
    <trip id="61" depart="915.00" from="195316407#6" to="12508542" type="truck"/>
    <trip id="62" depart="930.00" from="-104796138#1" to="-28693981#0" type="truck"/>
    <trip id="63" depart="945.00" from="-12504283#2" to="717388488#2" type="truck"/>
    <trip id="64" depart="960.00" from="473901225#2" to="28693981#2" type="truck"/>
    <trip id="65" depart="975.00" from="-26965605#2" to="-12507596#0" type="truck"/>
    <trip id="66" depart="990.00" from="473901225#0" to="724068298#4" type="truck"/>
    <trip id="67" depart="1005.00" from="-12509610#3" to="12505012#0" type="truck"/>
    <trip id="68" depart="1020.00" from="-12508343#4" to="189090054" type="truck"/>
    <trip id="69" depart="1035.00" from="189090044#1" to="-12514206#3" type="truck"/>
    <trip id="70" depart="1050.00" from="104796144#0" to="12509898#1" type="truck"/>
    <trip id="71" depart="1065.00" from="-144679984#6" to="370815179" type="truck"/>
    <trip id="72" depart="1080.00" from="-724068299#2" to="-12523142#2" type="truck"/>
    <trip id="73" depart="1095.00" from="12507944#2" to="144679972#1" type="truck"/>
    <trip id="74" depart="1110.00" from="-12518704" to="-27603088#0" type="truck"/>
    <trip id="75" depart="1125.00" from="8426472#2" to="12517214#1" type="truck"/>
    <trip id="76" depart="1140.00" from="-724068309#0" to="12507582" type="truck"/>
    <trip id="77" depart="1155.00" from="-12512350#0" to="-12525075#1" type="truck"/>
    <trip id="78" depart="1170.00" from="-28151997#8" to="12512579#4" type="truck"/>
    <trip id="79" depart="1185.00" from="-12523465" to="-12524976#1" type="truck"/>
    <trip id="80" depart="1200.00" from="-12508683" to="12515987#6" type="truck"/>
    <trip id="81" depart="1215.00" from="-12523462#1" to="629297643" type="truck"/>
    <trip id="82" depart="1230.00" from="338422816#1" to="-12508929#1" type="truck"/>
    <trip id="83" depart="1245.00" from="-12525075#3" to="12518691" type="truck"/>
    <trip id="84" depart="1260.00" from="-12520592#1" to="-12514598#11" type="truck"/>
    <trip id="85" depart="1275.00" from="724068283" to="12510960#1" type="truck"/>
    <trip id="86" depart="1290.00" from="104796138#0" to="23969821#3" type="truck"/>
    <trip id="87" depart="1305.00" from="27271744#3" to="-12518562#2" type="truck"/>
    <trip id="88" depart="1320.00" from="-12510207#4" to="-750011609#21" type="truck"/>
    <trip id="89" depart="1335.00" from="-724068300" to="12502975#1" type="truck"/>
    <trip id="90" depart="1350.00" from="12526644#0" to="12519108" type="truck"/>
    <trip id="91" depart="1365.00" from="751615566" to="-12510539#2" type="truck"/>
    <trip id="92" depart="1380.00" from="-717388488#13" to="-334781295#11" type="truck"/>
    <trip id="93" depart="1395.00" from="351695511#0" to="-144679984#0" type="truck"/>
    <trip id="94" depart="1410.00" from="-12518084#0" to="-8426472#3" type="truck"/>
    <trip id="95" depart="1425.00" from="-724068298#7" to="-195316373#2" type="truck"/>
    <trip id="96" depart="1440.00" from="-12525915#2" to="713420429#4" type="truck"/>
    <trip id="97" depart="1455.00" from="-749763243" to="351695511#2" type="truck"/>
    <trip id="98" depart="1470.00" from="12508929#2" to="-12506776#0" type="truck"/>
    <trip id="99" depart="1485.00" from="847327156#7" to="32043901#1" type="truck"/>
    <trip id="100" depart="1500.00" from="724068310#2" to="717388488#0" type="truck"/>
    <trip id="101" depart="1515.00" from="334781293#5" to="-12517094#0" type="truck"/>
    <trip id="102" depart="1530.00" from="12502975#1" to="-12523214#2" type="truck"/>
    <trip id="103" depart="1545.00" from="-717388488#10" to="-12507596#2" type="truck"/>
    <trip id="104" depart="1560.00" from="-517104476" to="751615567#3" type="truck"/>
    <trip id="105" depart="1575.00" from="-144679984#6" to="23969821#2" type="truck"/>
    <trip id="106" depart="1590.00" from="-750011609#7" to="-724068310#1" type="truck"/>
    <trip id="107" depart="1605.00" from="724068303" to="8426472#4" type="truck"/>
    <trip id="108" depart="1620.00" from="12509452#2" to="12525915#2" type="truck"/>
    <trip id="109" depart="1635.00" from="-12515412#0" to="-27198776#0" type="truck"/>
    <trip id="110" depart="1650.00" from="724068310#1" to="12511455#6" type="truck"/>
    <trip id="111" depart="1665.00" from="12508343#2" to="189090040#21" type="truck"/>
    <trip id="112" depart="1680.00" from="-12507530#1" to="12512244#0" type="truck"/>
    <trip id="113" depart="1695.00" from="12504859#4" to="334781295#16" type="truck"/>
    <trip id="114" depart="1710.00" from="-12515433#1" to="724068308#2" type="truck"/>
    <trip id="115" depart="1725.00" from="-12509452#1" to="-12518315#0" type="truck"/>
    <trip id="116" depart="1740.00" from="12511455#6" to="12519385#2" type="truck"/>
    <trip id="117" depart="1755.00" from="-12525041#0" to="-12512579#2" type="truck"/>
    <trip id="118" depart="1770.00" from="517104478#5" to="-144679972#1" type="truck"/>
    <trip id="119" depart="1785.00" from="12511455#5" to="12515004#1" type="truck"/>
    <trip id="120" depart="1800.00" from="-724068298#1" to="12511745#5" type="truck"/>
    <trip id="121" depart="1815.00" from="12506236#1" to="724068286" type="truck"/>
    <trip id="122" depart="1830.00" from="-12519108" to="12525901#6" type="truck"/>
    <trip id="123" depart="1845.00" from="-12525076" to="-724068289#2" type="truck"/>
    <trip id="124" depart="1860.00" from="12518084#5" to="-27199515#6" type="truck"/>
    <trip id="125" depart="1875.00" from="-27199515#9" to="189090040#3" type="truck"/>
    <trip id="126" depart="1890.00" from="-12508853" to="104796147#1" type="truck"/>
    <trip id="127" depart="1905.00" from="847327156#5" to="847327156#1" type="truck"/>
    <trip id="128" depart="1920.00" from="-12508928" to="-12523214#1" type="truck"/>
    <trip id="129" depart="1935.00" from="-144679984#6" to="724068283" type="truck"/>
    <trip id="130" depart="1950.00" from="476161857" to="473901225#3" type="truck"/>
    <trip id="131" depart="1965.00" from="-370814340#4" to="-12516233#1" type="truck"/>
    <trip id="132" depart="1980.00" from="28660990#1" to="12525023" type="truck"/>
    <trip id="133" depart="1995.00" from="12514206#2" to="772770085" type="truck"/>
    <trip id="134" depart="2010.00" from="12517094#1" to="-12500163#2" type="truck"/>
    <trip id="135" depart="2025.00" from="27586619#0" to="-27199515#4" type="truck"/>
    <trip id="136" depart="2040.00" from="12517446#0" to="724068289#2" type="truck"/>
    <trip id="137" depart="2055.00" from="-12514341#1" to="-12511489#1" type="truck"/>
    <trip id="138" depart="2070.00" from="-12510955#6" to="12510097#0" type="truck"/>
    <trip id="139" depart="2085.00" from="-189090040#1" to="12514598#2" type="truck"/>
    <trip id="140" depart="2100.00" from="12525577#1" to="-12521280#0" type="truck"/>
    <trip id="141" depart="2115.00" from="12515412#1" to="-189090040#21" type="truck"/>
    <trip id="142" depart="2130.00" from="12503561#0" to="629297639" type="truck"/>
    <trip id="143" depart="2145.00" from="334781277" to="-12510207#2" type="truck"/>
    <trip id="144" depart="2160.00" from="-724068300" to="-192966774#2" type="truck"/>
    <trip id="145" depart="2175.00" from="-104796144#2" to="195316407#2" type="truck"/>
    <trip id="146" depart="2190.00" from="12515444#0" to="-189090040#17" type="truck"/>
    <trip id="147" depart="2205.00" from="144846516#2" to="12509898#6" type="truck"/>
    <trip id="148" depart="2220.00" from="-724068302#2" to="-12502975#0" type="truck"/>
    <trip id="149" depart="2235.00" from="-12509268#0" to="5163623#2" type="truck"/>
    <trip id="150" depart="2250.00" from="568800237#1" to="12509610#2" type="truck"/>
    <trip id="151" depart="2265.00" from="28693981#1" to="12511745#3" type="truck"/>
    <trip id="152" depart="2280.00" from="-12514813#4" to="-12514206#1" type="truck"/>
    <trip id="153" depart="2295.00" from="-27049802#0" to="568800234#2" type="truck"/>
    <trip id="154" depart="2310.00" from="27049774#0" to="351695511#1" type="truck"/>
    <trip id="155" depart="2325.00" from="565169245" to="-12522528#1" type="truck"/>
    <trip id="156" depart="2340.00" from="-12525915#1" to="-12510955#2" type="truck"/>
    <trip id="157" depart="2355.00" from="195316407#9" to="5163623#5" type="truck"/>
    <trip id="158" depart="2370.00" from="-724068282#0" to="12515412#0" type="truck"/>
    <trip id="159" depart="2385.00" from="-12515004#3" to="717388488#4" type="truck"/>
    <trip id="160" depart="2400.00" from="351695512#2" to="750011609#21" type="truck"/>
    <trip id="161" depart="2415.00" from="27273002" to="476161857" type="truck"/>
    <trip id="162" depart="2430.00" from="-12504859#0" to="144846516#4" type="truck"/>
    <trip id="163" depart="2445.00" from="-28151951#0" to="717388488#6" type="truck"/>
    <trip id="164" depart="2460.00" from="27199515#10" to="351695513#0" type="truck"/>
    <trip id="165" depart="2475.00" from="27273002" to="-189090040#27" type="truck"/>
    <trip id="166" depart="2490.00" from="23968302#6" to="-12510960#5" type="truck"/>
    <trip id="167" depart="2505.00" from="370814340#7" to="338422816#1" type="truck"/>
    <trip id="168" depart="2520.00" from="-12523142#1" to="27592081" type="truck"/>
    <trip id="169" depart="2535.00" from="-751920353" to="-274356763#1" type="truck"/>
    <trip id="170" depart="2550.00" from="26974933" to="-12525193#3" type="truck"/>
    <trip id="171" depart="2565.00" from="-12504783#1" to="-12518735#1" type="truck"/>
    <trip id="172" depart="2580.00" from="-27603088#4" to="351695513#1" type="truck"/>
    <trip id="173" depart="2595.00" from="724068309#1" to="-195316373#4" type="truck"/>
    <trip id="174" depart="2610.00" from="12515987#2" to="-724068294#0" type="truck"/>
    <trip id="175" depart="2625.00" from="750011609#5" to="12509269#1" type="truck"/>
    <trip id="176" depart="2640.00" from="724068288#3" to="-12511489#1" type="truck"/>
    <trip id="177" depart="2655.00" from="743234028" to="-12517602#1" type="truck"/>
    <trip id="178" depart="2670.00" from="724068308#16" to="-189090040#24" type="truck"/>
    <trip id="179" depart="2685.00" from="-12510960#0" to="-750011609#4" type="truck"/>
    <trip id="180" depart="2700.00" from="12526444#3" to="-27603088#4" type="truck"/>
    <trip id="181" depart="2715.00" from="12512702#3" to="12507008#1" type="truck"/>
    <trip id="182" depart="2730.00" from="-55799321#1" to="12511455#0" type="truck"/>
    <trip id="183" depart="2745.00" from="-12526748" to="12525193#3" type="truck"/>
    <trip id="184" depart="2760.00" from="-104796138#3" to="717388484#1" type="truck"/>
    <trip id="185" depart="2775.00" from="12507944#0" to="12526003#1" type="truck"/>
    <trip id="186" depart="2790.00" from="144846516#3" to="12518732" type="truck"/>
    <trip id="187" depart="2805.00" from="-352856856" to="-12508854" type="truck"/>
    <trip id="188" depart="2820.00" from="12517446#2" to="-33057329#2" type="truck"/>
    <trip id="189" depart="2835.00" from="-27199515#4" to="334781293#8" type="truck"/>
    <trip id="190" depart="2850.00" from="12525901#0" to="-27199515#6" type="truck"/>
    <trip id="191" depart="2865.00" from="-27049802#2" to="-724068301#3" type="truck"/>
    <trip id="192" depart="2880.00" from="-717388488#13" to="-27049802#4" type="truck"/>
    <trip id="193" depart="2895.00" from="-12513203#1" to="-724068308#9" type="truck"/>
    <trip id="194" depart="2910.00" from="724068289#0" to="12520167#1" type="truck"/>
    <trip id="195" depart="2925.00" from="568800236#0" to="12514813#9" type="truck"/>
    <trip id="196" depart="2940.00" from="-23968302#7" to="12509829#0" type="truck"/>
    <trip id="197" depart="2955.00" from="-104796138#0" to="-23968302#7" type="truck"/>
    <trip id="198" depart="2970.00" from="-724068304#1" to="12511489#1" type="truck"/>
    <trip id="199" depart="2985.00" from="12517176#0" to="12500732" type="truck"/>
    <trip id="200" depart="3000.00" from="-749763242#0" to="-12523214#2" type="truck"/>
    <trip id="201" depart="3015.00" from="104796138#1" to="568800237#0" type="truck"/>
    <trip id="202" depart="3030.00" from="27049774#0" to="-12517184#2" type="truck"/>
    <trip id="203" depart="3045.00" from="-12509610#1" to="12507530#4" type="truck"/>
    <trip id="204" depart="3060.00" from="12515004#2" to="-334781293#5" type="truck"/>
    <trip id="205" depart="3075.00" from="27592070#0" to="189090040#28" type="truck"/>
    <trip id="206" depart="3090.00" from="12518142#1" to="-12525075#1" type="truck"/>
    <trip id="207" depart="3105.00" from="-12518562#2" to="-12504859#0" type="truck"/>
    <trip id="208" depart="3120.00" from="-12525724#1" to="12504283#2" type="truck"/>
    <trip id="209" depart="3135.00" from="334781293#8" to="-12509269#0" type="truck"/>
    <trip id="210" depart="3150.00" from="-724068292#0" to="12515987#2" type="truck"/>
    <trip id="211" depart="3165.00" from="-12518315#0" to="12523216#0" type="truck"/>
    <trip id="212" depart="3180.00" from="12504283#2" to="-13475393#3" type="truck"/>
    <trip id="213" depart="3195.00" from="12517184#1" to="-104796147#0" type="truck"/>
    <trip id="214" depart="3210.00" from="189090040#16" to="195316407#12" type="truck"/>
    <trip id="215" depart="3225.00" from="-12510955#5" to="-750011609#0" type="truck"/>
    <trip id="216" depart="3240.00" from="-12517176#0" to="724068308#11" type="truck"/>
    <trip id="217" depart="3255.00" from="12505693#0" to="-12506721#3" type="truck"/>
    <trip id="218" depart="3270.00" from="-12525915#0" to="334781293#9" type="truck"/>
    <trip id="219" depart="3285.00" from="-751615565" to="27271744#0" type="truck"/>
    <trip id="220" depart="3300.00" from="12517901#2" to="784874387#0" type="truck"/>
    <trip id="221" depart="3315.00" from="12511489#0" to="724068300" type="truck"/>
    <trip id="222" depart="3330.00" from="517104479#1" to="12514813#2" type="truck"/>
    <trip id="223" depart="3345.00" from="12525724#1" to="12506236#2" type="truck"/>
    <trip id="224" depart="3360.00" from="28151997#3" to="12509829#0" type="truck"/>
    <trip id="225" depart="3375.00" from="56185965#0" to="189090040#12" type="truck"/>
    <trip id="226" depart="3390.00" from="104796138#5" to="-189090040#11" type="truck"/>
    <trip id="227" depart="3405.00" from="-12525901#5" to="12516691#4" type="truck"/>
    <trip id="228" depart="3420.00" from="189090044#1" to="12507887#2" type="truck"/>
    <trip id="229" depart="3435.00" from="12514813#3" to="-189090040#9" type="truck"/>
    <trip id="230" depart="3450.00" from="-12509269#3" to="-23968302#4" type="truck"/>
    <trip id="231" depart="3465.00" from="-189090039#6" to="-28151997#1" type="truck"/>
    <trip id="232" depart="3480.00" from="12508085#0" to="-12514738#0" type="truck"/>
    <trip id="233" depart="3495.00" from="-12524429" to="12523214#2" type="truck"/>
    <trip id="234" depart="3510.00" from="12523465" to="-12508097" type="truck"/>
    <trip id="235" depart="3525.00" from="-724068284" to="12509470#3" type="truck"/>
    <trip id="236" depart="3540.00" from="-724068293#0" to="-12521608" type="truck"/>
    <trip id="237" depart="3555.00" from="-724068298#3" to="614945676" type="truck"/>
    <trip id="238" depart="3570.00" from="12510955#4" to="12523214#6" type="truck"/>
    <trip id="239" depart="3585.00" from="334781295#7" to="195316373#4" type="truck"/>
</routes>
