<?xml version="1.0" encoding="UTF-8"?>

<!-- generated on 2023-05-25 15:46:00 by Eclipse SUMO netedit Version 1.17.0
<configuration xmlns:xsi="http://www.w3.org/2001/XMLSchema-instance" xsi:noNamespaceSchemaLocation="http://sumo.dlr.de/xsd/netconvertConfiguration.xsd">

    <input>
        <sumo-net-file value="map.net.xml"/>
    </input>

    <output>
        <output-file value="map.net.xml"/>
    </output>

    <processing>
        <geometry.min-radius.fix.railways value="false"/>
        <geometry.max-grade.fix value="false"/>
        <offset.disable-normalization value="true"/>
        <lefthand value="true"/>
    </processing>

    <junctions>
        <no-turnarounds value="true"/>
        <junctions.corner-detail value="5"/>
        <junctions.limit-turn-speed value="5.50"/>
        <rectangular-lane-cut value="0"/>
    </junctions>

    <pedestrian>
        <walkingareas value="0"/>
    </pedestrian>

</configuration>
-->

<net version="1.16" junctionCornerDetail="5" lefthand="true" limitTurnSpeed="5.50" xmlns:xsi="http://www.w3.org/2001/XMLSchema-instance" xsi:noNamespaceSchemaLocation="http://sumo.dlr.de/xsd/net_file.xsd">

    <location netOffset="0.00,0.00" convBoundary="-54.83,49.36,1000.00,49.36" origBoundary="-10000000000.00,-10000000000.00,10000000000.00,10000000000.00" projParameter="!"/>

    <edge id=":gneJ3_0" function="internal">
        <lane id=":gneJ3_0_0" index="0" speed="13.89" length="0.10" shape="36.80,47.76 36.80,47.76"/>
    </edge>
    <edge id=":gneJ3_1" function="internal">
        <lane id=":gneJ3_1_0" index="0" speed="13.89" length="0.10" shape="36.80,50.96 36.80,50.96"/>
    </edge>

    <edge id="-gneE1" from="gneJ3" to="gneJ2" priority="-1">
        <lane id="-gneE1_0" index="0" speed="13.89" length="91.63" shape="36.80,47.76 -54.83,47.76"/>
    </edge>
    <edge id="-gneE2" from="gneJ4" to="gneJ3" priority="-1">
        <lane id="-gneE2_0" index="0" speed="13.89" length="963.20" shape="1000.00,47.76 36.80,47.76"/>
    </edge>
    <edge id="gneE1" from="gneJ2" to="gneJ3" priority="-1">
        <lane id="gneE1_0" index="0" speed="13.89" length="91.63" shape="-54.83,50.96 36.80,50.96"/>
    </edge>
    <edge id="gneE2" from="gneJ3" to="gneJ4" priority="-1">
        <lane id="gneE2_0" index="0" speed="13.89" length="963.20" shape="36.80,50.96 1000.00,50.96"/>
    </edge>

    <junction id="gneJ2" type="dead_end" x="-54.83" y="49.36" incLanes="-gneE1_0" intLanes="" shape="-54.83,49.36 -54.83,46.16 -54.83,49.36"/>
    <junction id="gneJ3" type="priority" x="36.80" y="49.36" incLanes="-gneE2_0 gneE1_0" intLanes=":gneJ3_0_0 :gneJ3_1_0" shape="36.80,46.16 36.80,52.56 36.80,46.16">
        <request index="0" response="00" foes="00" cont="0"/>
        <request index="1" response="00" foes="00" cont="0"/>
    </junction>
    <junction id="gneJ4" type="dead_end" x="1000.00" y="49.36" incLanes="gneE2_0" intLanes="" shape="1000.00,49.36 1000.00,52.56 1000.00,49.36"/>

    <connection from="-gneE2" to="-gneE1" fromLane="0" toLane="0" via=":gneJ3_0_0" dir="s" state="M"/>
    <connection from="gneE1" to="gneE2" fromLane="0" toLane="0" via=":gneJ3_1_0" dir="s" state="M"/>

    <connection from=":gneJ3_0" to="-gneE1" fromLane="0" toLane="0" dir="s" state="M"/>
    <connection from=":gneJ3_1" to="gneE2" fromLane="0" toLane="0" dir="s" state="M"/>

</net>
