<?xml version="1.0" encoding="UTF-8"?>

<!-- generated on 2023-05-25 15:38:49.979107 by randomTrips.py v1_17_0+0000-737931d58da
<configuration>
    <net-file value="map.net.xml"/>
    <output-trip-file value="trips.xml"/>
    <route-file value="routes.rou.xml"/>
    <end value="600.0"/>
    <period value="0.2"/>
</configuration>
-->

<!-- generated on 2023-05-25 15:38:49 by Eclipse SUMO duarouter Version 1.17.0
<configuration xmlns:xsi="http://www.w3.org/2001/XMLSchema-instance" xsi:noNamespaceSchemaLocation="http://sumo.dlr.de/xsd/duarouterConfiguration.xsd">

    <input>
        <net-file value="map.net.xml"/>
        <route-files value="trips.xml"/>
    </input>

    <output>
        <output-file value="routes.rou.xml"/>
        <alternatives-output value="NUL"/>
    </output>

    <time>
        <begin value="0"/>
        <end value="600.0"/>
    </time>

    <report>
        <no-warnings value="true"/>
        <ignore-errors value="true"/>
        <no-step-log value="true"/>
    </report>

</configuration>
-->

<routes xmlns:xsi="http://www.w3.org/2001/XMLSchema-instance" xsi:noNamespaceSchemaLocation="http://sumo.dlr.de/xsd/routes_file.xsd">
    <vehicle id="1" depart="0.20">
        <route edges="-gneE2 -gneE1"/>
    </vehicle>
    <vehicle id="2" depart="0.40">
        <route edges="gneE1 gneE2"/>
    </vehicle>
    <vehicle id="4" depart="0.80">
        <route edges="-gneE2 -gneE1"/>
    </vehicle>
    <vehicle id="6" depart="1.20">
        <route edges="-gneE2 -gneE1"/>
    </vehicle>
    <vehicle id="7" depart="1.40">
        <route edges="gneE1 gneE2"/>
    </vehicle>
    <vehicle id="10" depart="2.00">
        <route edges="gneE1 gneE2"/>
    </vehicle>
    <vehicle id="11" depart="2.20">
        <route edges="-gneE2 -gneE1"/>
    </vehicle>
    <vehicle id="13" depart="2.60">
        <route edges="-gneE2 -gneE1"/>
    </vehicle>
    <vehicle id="14" depart="2.80">
        <route edges="gneE1 gneE2"/>
    </vehicle>
    <vehicle id="15" depart="3.00">
        <route edges="gneE1 gneE2"/>
    </vehicle>
    <vehicle id="16" depart="3.20">
        <route edges="gneE1 gneE2"/>
    </vehicle>
    <vehicle id="18" depart="3.60">
        <route edges="gneE1 gneE2"/>
    </vehicle>
    <vehicle id="19" depart="3.80">
        <route edges="gneE1 gneE2"/>
    </vehicle>
    <vehicle id="21" depart="4.20">
        <route edges="-gneE2 -gneE1"/>
    </vehicle>
    <vehicle id="22" depart="4.40">
        <route edges="-gneE2 -gneE1"/>
    </vehicle>
    <vehicle id="23" depart="4.60">
        <route edges="-gneE2 -gneE1"/>
    </vehicle>
    <vehicle id="25" depart="5.00">
        <route edges="-gneE2 -gneE1"/>
    </vehicle>
    <vehicle id="27" depart="5.40">
        <route edges="gneE1 gneE2"/>
    </vehicle>
    <vehicle id="29" depart="5.80">
        <route edges="-gneE2 -gneE1"/>
    </vehicle>
    <vehicle id="30" depart="6.00">
        <route edges="gneE1 gneE2"/>
    </vehicle>
    <vehicle id="31" depart="6.20">
        <route edges="gneE1 gneE2"/>
    </vehicle>
    <vehicle id="32" depart="6.40">
        <route edges="gneE1 gneE2"/>
    </vehicle>
    <vehicle id="33" depart="6.60">
        <route edges="-gneE2 -gneE1"/>
    </vehicle>
    <vehicle id="34" depart="6.80">
        <route edges="-gneE2 -gneE1"/>
    </vehicle>
    <vehicle id="39" depart="7.80">
        <route edges="-gneE2 -gneE1"/>
    </vehicle>
    <vehicle id="41" depart="8.20">
        <route edges="gneE1 gneE2"/>
    </vehicle>
    <vehicle id="42" depart="8.40">
        <route edges="-gneE2 -gneE1"/>
    </vehicle>
    <vehicle id="43" depart="8.60">
        <route edges="gneE1 gneE2"/>
    </vehicle>
    <vehicle id="44" depart="8.80">
        <route edges="-gneE2 -gneE1"/>
    </vehicle>
    <vehicle id="47" depart="9.40">
        <route edges="-gneE2 -gneE1"/>
    </vehicle>
    <vehicle id="48" depart="9.60">
        <route edges="gneE1 gneE2"/>
    </vehicle>
    <vehicle id="49" depart="9.80">
        <route edges="gneE1 gneE2"/>
    </vehicle>
    <vehicle id="51" depart="10.20">
        <route edges="gneE1 gneE2"/>
    </vehicle>
    <vehicle id="53" depart="10.60">
        <route edges="-gneE2 -gneE1"/>
    </vehicle>
    <vehicle id="57" depart="11.40">
        <route edges="gneE1 gneE2"/>
    </vehicle>
    <vehicle id="60" depart="12.00">
        <route edges="gneE1 gneE2"/>
    </vehicle>
    <vehicle id="61" depart="12.20">
        <route edges="gneE1 gneE2"/>
    </vehicle>
    <vehicle id="62" depart="12.40">
        <route edges="-gneE2 -gneE1"/>
    </vehicle>
    <vehicle id="64" depart="12.80">
        <route edges="gneE1 gneE2"/>
    </vehicle>
    <vehicle id="65" depart="13.00">
        <route edges="-gneE2 -gneE1"/>
    </vehicle>
    <vehicle id="66" depart="13.20">
        <route edges="gneE1 gneE2"/>
    </vehicle>
    <vehicle id="67" depart="13.40">
        <route edges="-gneE2 -gneE1"/>
    </vehicle>
    <vehicle id="72" depart="14.40">
        <route edges="-gneE2 -gneE1"/>
    </vehicle>
    <vehicle id="73" depart="14.60">
        <route edges="gneE1 gneE2"/>
    </vehicle>
    <vehicle id="74" depart="14.80">
        <route edges="-gneE2 -gneE1"/>
    </vehicle>
    <vehicle id="75" depart="15.00">
        <route edges="gneE1 gneE2"/>
    </vehicle>
    <vehicle id="77" depart="15.40">
        <route edges="-gneE2 -gneE1"/>
    </vehicle>
    <vehicle id="79" depart="15.80">
        <route edges="-gneE2 -gneE1"/>
    </vehicle>
    <vehicle id="84" depart="16.80">
        <route edges="-gneE2 -gneE1"/>
    </vehicle>
    <vehicle id="85" depart="17.00">
        <route edges="gneE1 gneE2"/>
    </vehicle>
    <vehicle id="88" depart="17.60">
        <route edges="-gneE2 -gneE1"/>
    </vehicle>
    <vehicle id="89" depart="17.80">
        <route edges="-gneE2 -gneE1"/>
    </vehicle>
    <vehicle id="90" depart="18.00">
        <route edges="gneE1 gneE2"/>
    </vehicle>
    <vehicle id="92" depart="18.40">
        <route edges="-gneE2 -gneE1"/>
    </vehicle>
    <vehicle id="94" depart="18.80">
        <route edges="-gneE2 -gneE1"/>
    </vehicle>
    <vehicle id="95" depart="19.00">
        <route edges="-gneE2 -gneE1"/>
    </vehicle>
    <vehicle id="99" depart="19.80">
        <route edges="gneE1 gneE2"/>
    </vehicle>
    <vehicle id="100" depart="20.00">
        <route edges="gneE1 gneE2"/>
    </vehicle>
    <vehicle id="102" depart="20.40">
        <route edges="-gneE2 -gneE1"/>
    </vehicle>
    <vehicle id="103" depart="20.60">
        <route edges="-gneE2 -gneE1"/>
    </vehicle>
    <vehicle id="106" depart="21.20">
        <route edges="-gneE2 -gneE1"/>
    </vehicle>
    <vehicle id="107" depart="21.40">
        <route edges="gneE1 gneE2"/>
    </vehicle>
    <vehicle id="108" depart="21.60">
        <route edges="gneE1 gneE2"/>
    </vehicle>
    <vehicle id="109" depart="21.80">
        <route edges="-gneE2 -gneE1"/>
    </vehicle>
    <vehicle id="110" depart="22.00">
        <route edges="gneE1 gneE2"/>
    </vehicle>
    <vehicle id="111" depart="22.20">
        <route edges="gneE1 gneE2"/>
    </vehicle>
    <vehicle id="113" depart="22.60">
        <route edges="gneE1 gneE2"/>
    </vehicle>
    <vehicle id="115" depart="23.00">
        <route edges="-gneE2 -gneE1"/>
    </vehicle>
    <vehicle id="116" depart="23.20">
        <route edges="gneE1 gneE2"/>
    </vehicle>
    <vehicle id="117" depart="23.40">
        <route edges="-gneE2 -gneE1"/>
    </vehicle>
    <vehicle id="119" depart="23.80">
        <route edges="gneE1 gneE2"/>
    </vehicle>
    <vehicle id="121" depart="24.20">
        <route edges="gneE1 gneE2"/>
    </vehicle>
    <vehicle id="123" depart="24.60">
        <route edges="-gneE2 -gneE1"/>
    </vehicle>
    <vehicle id="126" depart="25.20">
        <route edges="-gneE2 -gneE1"/>
    </vehicle>
    <vehicle id="127" depart="25.40">
        <route edges="gneE1 gneE2"/>
    </vehicle>
    <vehicle id="128" depart="25.60">
        <route edges="-gneE2 -gneE1"/>
    </vehicle>
    <vehicle id="130" depart="26.00">
        <route edges="gneE1 gneE2"/>
    </vehicle>
    <vehicle id="131" depart="26.20">
        <route edges="-gneE2 -gneE1"/>
    </vehicle>
    <vehicle id="132" depart="26.40">
        <route edges="gneE1 gneE2"/>
    </vehicle>
    <vehicle id="133" depart="26.60">
        <route edges="gneE1 gneE2"/>
    </vehicle>
    <vehicle id="136" depart="27.20">
        <route edges="gneE1 gneE2"/>
    </vehicle>
    <vehicle id="137" depart="27.40">
        <route edges="-gneE2 -gneE1"/>
    </vehicle>
    <vehicle id="144" depart="28.80">
        <route edges="-gneE2 -gneE1"/>
    </vehicle>
    <vehicle id="147" depart="29.40">
        <route edges="gneE1 gneE2"/>
    </vehicle>
    <vehicle id="148" depart="29.60">
        <route edges="-gneE2 -gneE1"/>
    </vehicle>
    <vehicle id="150" depart="30.00">
        <route edges="gneE1 gneE2"/>
    </vehicle>
    <vehicle id="151" depart="30.20">
        <route edges="gneE1 gneE2"/>
    </vehicle>
    <vehicle id="152" depart="30.40">
        <route edges="-gneE2 -gneE1"/>
    </vehicle>
    <vehicle id="154" depart="30.80">
        <route edges="gneE1 gneE2"/>
    </vehicle>
    <vehicle id="156" depart="31.20">
        <route edges="-gneE2 -gneE1"/>
    </vehicle>
    <vehicle id="157" depart="31.40">
        <route edges="gneE1 gneE2"/>
    </vehicle>
    <vehicle id="160" depart="32.00">
        <route edges="gneE1 gneE2"/>
    </vehicle>
    <vehicle id="161" depart="32.20">
        <route edges="gneE1 gneE2"/>
    </vehicle>
    <vehicle id="164" depart="32.80">
        <route edges="gneE1 gneE2"/>
    </vehicle>
    <vehicle id="167" depart="33.40">
        <route edges="gneE1 gneE2"/>
    </vehicle>
    <vehicle id="169" depart="33.80">
        <route edges="-gneE2 -gneE1"/>
    </vehicle>
    <vehicle id="171" depart="34.20">
        <route edges="-gneE2 -gneE1"/>
    </vehicle>
    <vehicle id="175" depart="35.00">
        <route edges="gneE1 gneE2"/>
    </vehicle>
    <vehicle id="179" depart="35.80">
        <route edges="-gneE2 -gneE1"/>
    </vehicle>
    <vehicle id="181" depart="36.20">
        <route edges="gneE1 gneE2"/>
    </vehicle>
    <vehicle id="185" depart="37.00">
        <route edges="gneE1 gneE2"/>
    </vehicle>
    <vehicle id="186" depart="37.20">
        <route edges="gneE1 gneE2"/>
    </vehicle>
    <vehicle id="187" depart="37.40">
        <route edges="-gneE2 -gneE1"/>
    </vehicle>
    <vehicle id="191" depart="38.20">
        <route edges="-gneE2 -gneE1"/>
    </vehicle>
    <vehicle id="192" depart="38.40">
        <route edges="-gneE2 -gneE1"/>
    </vehicle>
    <vehicle id="193" depart="38.60">
        <route edges="-gneE2 -gneE1"/>
    </vehicle>
    <vehicle id="194" depart="38.80">
        <route edges="gneE1 gneE2"/>
    </vehicle>
    <vehicle id="195" depart="39.00">
        <route edges="gneE1 gneE2"/>
    </vehicle>
    <vehicle id="197" depart="39.40">
        <route edges="-gneE2 -gneE1"/>
    </vehicle>
    <vehicle id="200" depart="40.00">
        <route edges="-gneE2 -gneE1"/>
    </vehicle>
    <vehicle id="205" depart="41.00">
        <route edges="gneE1 gneE2"/>
    </vehicle>
    <vehicle id="207" depart="41.40">
        <route edges="-gneE2 -gneE1"/>
    </vehicle>
    <vehicle id="208" depart="41.60">
        <route edges="-gneE2 -gneE1"/>
    </vehicle>
    <vehicle id="212" depart="42.40">
        <route edges="-gneE2 -gneE1"/>
    </vehicle>
    <vehicle id="214" depart="42.80">
        <route edges="gneE1 gneE2"/>
    </vehicle>
    <vehicle id="215" depart="43.00">
        <route edges="-gneE2 -gneE1"/>
    </vehicle>
    <vehicle id="220" depart="44.00">
        <route edges="gneE1 gneE2"/>
    </vehicle>
    <vehicle id="221" depart="44.20">
        <route edges="gneE1 gneE2"/>
    </vehicle>
    <vehicle id="222" depart="44.40">
        <route edges="gneE1 gneE2"/>
    </vehicle>
    <vehicle id="223" depart="44.60">
        <route edges="gneE1 gneE2"/>
    </vehicle>
    <vehicle id="224" depart="44.80">
        <route edges="gneE1 gneE2"/>
    </vehicle>
    <vehicle id="225" depart="45.00">
        <route edges="gneE1 gneE2"/>
    </vehicle>
    <vehicle id="226" depart="45.20">
        <route edges="-gneE2 -gneE1"/>
    </vehicle>
    <vehicle id="228" depart="45.60">
        <route edges="gneE1 gneE2"/>
    </vehicle>
    <vehicle id="230" depart="46.00">
        <route edges="-gneE2 -gneE1"/>
    </vehicle>
    <vehicle id="231" depart="46.20">
        <route edges="-gneE2 -gneE1"/>
    </vehicle>
    <vehicle id="236" depart="47.20">
        <route edges="-gneE2 -gneE1"/>
    </vehicle>
    <vehicle id="238" depart="47.60">
        <route edges="gneE1 gneE2"/>
    </vehicle>
    <vehicle id="239" depart="47.80">
        <route edges="gneE1 gneE2"/>
    </vehicle>
    <vehicle id="240" depart="48.00">
        <route edges="-gneE2 -gneE1"/>
    </vehicle>
    <vehicle id="242" depart="48.40">
        <route edges="gneE1 gneE2"/>
    </vehicle>
    <vehicle id="244" depart="48.80">
        <route edges="gneE1 gneE2"/>
    </vehicle>
    <vehicle id="245" depart="49.00">
        <route edges="-gneE2 -gneE1"/>
    </vehicle>
    <vehicle id="246" depart="49.20">
        <route edges="-gneE2 -gneE1"/>
    </vehicle>
    <vehicle id="248" depart="49.60">
        <route edges="-gneE2 -gneE1"/>
    </vehicle>
    <vehicle id="249" depart="49.80">
        <route edges="-gneE2 -gneE1"/>
    </vehicle>
    <vehicle id="253" depart="50.60">
        <route edges="-gneE2 -gneE1"/>
    </vehicle>
    <vehicle id="254" depart="50.80">
        <route edges="-gneE2 -gneE1"/>
    </vehicle>
    <vehicle id="255" depart="51.00">
        <route edges="-gneE2 -gneE1"/>
    </vehicle>
    <vehicle id="257" depart="51.40">
        <route edges="gneE1 gneE2"/>
    </vehicle>
    <vehicle id="258" depart="51.60">
        <route edges="-gneE2 -gneE1"/>
    </vehicle>
    <vehicle id="261" depart="52.20">
        <route edges="gneE1 gneE2"/>
    </vehicle>
    <vehicle id="262" depart="52.40">
        <route edges="gneE1 gneE2"/>
    </vehicle>
    <vehicle id="264" depart="52.80">
        <route edges="-gneE2 -gneE1"/>
    </vehicle>
    <vehicle id="267" depart="53.40">
        <route edges="gneE1 gneE2"/>
    </vehicle>
    <vehicle id="270" depart="54.00">
        <route edges="gneE1 gneE2"/>
    </vehicle>
    <vehicle id="271" depart="54.20">
        <route edges="-gneE2 -gneE1"/>
    </vehicle>
    <vehicle id="275" depart="55.00">
        <route edges="gneE1 gneE2"/>
    </vehicle>
    <vehicle id="277" depart="55.40">
        <route edges="gneE1 gneE2"/>
    </vehicle>
    <vehicle id="280" depart="56.00">
        <route edges="-gneE2 -gneE1"/>
    </vehicle>
    <vehicle id="282" depart="56.40">
        <route edges="gneE1 gneE2"/>
    </vehicle>
    <vehicle id="284" depart="56.80">
        <route edges="gneE1 gneE2"/>
    </vehicle>
    <vehicle id="286" depart="57.20">
        <route edges="gneE1 gneE2"/>
    </vehicle>
    <vehicle id="294" depart="58.80">
        <route edges="-gneE2 -gneE1"/>
    </vehicle>
    <vehicle id="302" depart="60.40">
        <route edges="gneE1 gneE2"/>
    </vehicle>
    <vehicle id="304" depart="60.80">
        <route edges="-gneE2 -gneE1"/>
    </vehicle>
    <vehicle id="310" depart="62.00">
        <route edges="-gneE2 -gneE1"/>
    </vehicle>
    <vehicle id="311" depart="62.20">
        <route edges="-gneE2 -gneE1"/>
    </vehicle>
    <vehicle id="312" depart="62.40">
        <route edges="gneE1 gneE2"/>
    </vehicle>
    <vehicle id="313" depart="62.60">
        <route edges="-gneE2 -gneE1"/>
    </vehicle>
    <vehicle id="315" depart="63.00">
        <route edges="gneE1 gneE2"/>
    </vehicle>
    <vehicle id="316" depart="63.20">
        <route edges="-gneE2 -gneE1"/>
    </vehicle>
    <vehicle id="317" depart="63.40">
        <route edges="-gneE2 -gneE1"/>
    </vehicle>
    <vehicle id="318" depart="63.60">
        <route edges="-gneE2 -gneE1"/>
    </vehicle>
    <vehicle id="320" depart="64.00">
        <route edges="gneE1 gneE2"/>
    </vehicle>
    <vehicle id="323" depart="64.60">
        <route edges="gneE1 gneE2"/>
    </vehicle>
    <vehicle id="324" depart="64.80">
        <route edges="-gneE2 -gneE1"/>
    </vehicle>
    <vehicle id="325" depart="65.00">
        <route edges="-gneE2 -gneE1"/>
    </vehicle>
    <vehicle id="329" depart="65.80">
        <route edges="-gneE2 -gneE1"/>
    </vehicle>
    <vehicle id="332" depart="66.40">
        <route edges="gneE1 gneE2"/>
    </vehicle>
    <vehicle id="337" depart="67.40">
        <route edges="gneE1 gneE2"/>
    </vehicle>
    <vehicle id="338" depart="67.60">
        <route edges="gneE1 gneE2"/>
    </vehicle>
    <vehicle id="339" depart="67.80">
        <route edges="-gneE2 -gneE1"/>
    </vehicle>
    <vehicle id="341" depart="68.20">
        <route edges="-gneE2 -gneE1"/>
    </vehicle>
    <vehicle id="342" depart="68.40">
        <route edges="-gneE2 -gneE1"/>
    </vehicle>
    <vehicle id="346" depart="69.20">
        <route edges="gneE1 gneE2"/>
    </vehicle>
    <vehicle id="347" depart="69.40">
        <route edges="gneE1 gneE2"/>
    </vehicle>
    <vehicle id="348" depart="69.60">
        <route edges="gneE1 gneE2"/>
    </vehicle>
    <vehicle id="350" depart="70.00">
        <route edges="gneE1 gneE2"/>
    </vehicle>
    <vehicle id="352" depart="70.40">
        <route edges="-gneE2 -gneE1"/>
    </vehicle>
    <vehicle id="353" depart="70.60">
        <route edges="gneE1 gneE2"/>
    </vehicle>
    <vehicle id="354" depart="70.80">
        <route edges="-gneE2 -gneE1"/>
    </vehicle>
    <vehicle id="355" depart="71.00">
        <route edges="gneE1 gneE2"/>
    </vehicle>
    <vehicle id="356" depart="71.20">
        <route edges="gneE1 gneE2"/>
    </vehicle>
    <vehicle id="357" depart="71.40">
        <route edges="-gneE2 -gneE1"/>
    </vehicle>
    <vehicle id="358" depart="71.60">
        <route edges="-gneE2 -gneE1"/>
    </vehicle>
    <vehicle id="359" depart="71.80">
        <route edges="-gneE2 -gneE1"/>
    </vehicle>
    <vehicle id="361" depart="72.20">
        <route edges="gneE1 gneE2"/>
    </vehicle>
    <vehicle id="362" depart="72.40">
        <route edges="gneE1 gneE2"/>
    </vehicle>
    <vehicle id="367" depart="73.40">
        <route edges="gneE1 gneE2"/>
    </vehicle>
    <vehicle id="368" depart="73.60">
        <route edges="-gneE2 -gneE1"/>
    </vehicle>
    <vehicle id="369" depart="73.80">
        <route edges="-gneE2 -gneE1"/>
    </vehicle>
    <vehicle id="370" depart="74.00">
        <route edges="gneE1 gneE2"/>
    </vehicle>
    <vehicle id="373" depart="74.60">
        <route edges="gneE1 gneE2"/>
    </vehicle>
    <vehicle id="374" depart="74.80">
        <route edges="-gneE2 -gneE1"/>
    </vehicle>
    <vehicle id="377" depart="75.40">
        <route edges="gneE1 gneE2"/>
    </vehicle>
    <vehicle id="379" depart="75.80">
        <route edges="-gneE2 -gneE1"/>
    </vehicle>
    <vehicle id="380" depart="76.00">
        <route edges="gneE1 gneE2"/>
    </vehicle>
    <vehicle id="382" depart="76.40">
        <route edges="gneE1 gneE2"/>
    </vehicle>
    <vehicle id="388" depart="77.60">
        <route edges="gneE1 gneE2"/>
    </vehicle>
    <vehicle id="389" depart="77.80">
        <route edges="-gneE2 -gneE1"/>
    </vehicle>
    <vehicle id="391" depart="78.20">
        <route edges="gneE1 gneE2"/>
    </vehicle>
    <vehicle id="395" depart="79.00">
        <route edges="gneE1 gneE2"/>
    </vehicle>
    <vehicle id="396" depart="79.20">
        <route edges="gneE1 gneE2"/>
    </vehicle>
    <vehicle id="399" depart="79.80">
        <route edges="gneE1 gneE2"/>
    </vehicle>
    <vehicle id="400" depart="80.00">
        <route edges="-gneE2 -gneE1"/>
    </vehicle>
    <vehicle id="401" depart="80.20">
        <route edges="gneE1 gneE2"/>
    </vehicle>
    <vehicle id="402" depart="80.40">
        <route edges="-gneE2 -gneE1"/>
    </vehicle>
    <vehicle id="404" depart="80.80">
        <route edges="gneE1 gneE2"/>
    </vehicle>
    <vehicle id="405" depart="81.00">
        <route edges="-gneE2 -gneE1"/>
    </vehicle>
    <vehicle id="409" depart="81.80">
        <route edges="gneE1 gneE2"/>
    </vehicle>
    <vehicle id="411" depart="82.20">
        <route edges="gneE1 gneE2"/>
    </vehicle>
    <vehicle id="414" depart="82.80">
        <route edges="gneE1 gneE2"/>
    </vehicle>
    <vehicle id="421" depart="84.20">
        <route edges="gneE1 gneE2"/>
    </vehicle>
    <vehicle id="422" depart="84.40">
        <route edges="gneE1 gneE2"/>
    </vehicle>
    <vehicle id="423" depart="84.60">
        <route edges="-gneE2 -gneE1"/>
    </vehicle>
    <vehicle id="424" depart="84.80">
        <route edges="gneE1 gneE2"/>
    </vehicle>
    <vehicle id="427" depart="85.40">
        <route edges="gneE1 gneE2"/>
    </vehicle>
    <vehicle id="431" depart="86.20">
        <route edges="gneE1 gneE2"/>
    </vehicle>
    <vehicle id="433" depart="86.60">
        <route edges="-gneE2 -gneE1"/>
    </vehicle>
    <vehicle id="435" depart="87.00">
        <route edges="gneE1 gneE2"/>
    </vehicle>
    <vehicle id="436" depart="87.20">
        <route edges="-gneE2 -gneE1"/>
    </vehicle>
    <vehicle id="437" depart="87.40">
        <route edges="gneE1 gneE2"/>
    </vehicle>
    <vehicle id="439" depart="87.80">
        <route edges="-gneE2 -gneE1"/>
    </vehicle>
    <vehicle id="440" depart="88.00">
        <route edges="-gneE2 -gneE1"/>
    </vehicle>
    <vehicle id="442" depart="88.40">
        <route edges="gneE1 gneE2"/>
    </vehicle>
    <vehicle id="443" depart="88.60">
        <route edges="-gneE2 -gneE1"/>
    </vehicle>
    <vehicle id="447" depart="89.40">
        <route edges="-gneE2 -gneE1"/>
    </vehicle>
    <vehicle id="448" depart="89.60">
        <route edges="-gneE2 -gneE1"/>
    </vehicle>
    <vehicle id="449" depart="89.80">
        <route edges="gneE1 gneE2"/>
    </vehicle>
    <vehicle id="451" depart="90.20">
        <route edges="gneE1 gneE2"/>
    </vehicle>
    <vehicle id="453" depart="90.60">
        <route edges="gneE1 gneE2"/>
    </vehicle>
    <vehicle id="458" depart="91.60">
        <route edges="gneE1 gneE2"/>
    </vehicle>
    <vehicle id="459" depart="91.80">
        <route edges="gneE1 gneE2"/>
    </vehicle>
    <vehicle id="460" depart="92.00">
        <route edges="gneE1 gneE2"/>
    </vehicle>
    <vehicle id="461" depart="92.20">
        <route edges="gneE1 gneE2"/>
    </vehicle>
    <vehicle id="466" depart="93.20">
        <route edges="-gneE2 -gneE1"/>
    </vehicle>
    <vehicle id="467" depart="93.40">
        <route edges="gneE1 gneE2"/>
    </vehicle>
    <vehicle id="468" depart="93.60">
        <route edges="gneE1 gneE2"/>
    </vehicle>
    <vehicle id="471" depart="94.20">
        <route edges="gneE1 gneE2"/>
    </vehicle>
    <vehicle id="472" depart="94.40">
        <route edges="-gneE2 -gneE1"/>
    </vehicle>
    <vehicle id="474" depart="94.80">
        <route edges="gneE1 gneE2"/>
    </vehicle>
    <vehicle id="475" depart="95.00">
        <route edges="gneE1 gneE2"/>
    </vehicle>
    <vehicle id="476" depart="95.20">
        <route edges="gneE1 gneE2"/>
    </vehicle>
    <vehicle id="480" depart="96.00">
        <route edges="gneE1 gneE2"/>
    </vehicle>
    <vehicle id="481" depart="96.20">
        <route edges="gneE1 gneE2"/>
    </vehicle>
    <vehicle id="482" depart="96.40">
        <route edges="-gneE2 -gneE1"/>
    </vehicle>
    <vehicle id="484" depart="96.80">
        <route edges="gneE1 gneE2"/>
    </vehicle>
    <vehicle id="485" depart="97.00">
        <route edges="-gneE2 -gneE1"/>
    </vehicle>
    <vehicle id="486" depart="97.20">
        <route edges="gneE1 gneE2"/>
    </vehicle>
    <vehicle id="487" depart="97.40">
        <route edges="-gneE2 -gneE1"/>
    </vehicle>
    <vehicle id="489" depart="97.80">
        <route edges="-gneE2 -gneE1"/>
    </vehicle>
    <vehicle id="491" depart="98.20">
        <route edges="-gneE2 -gneE1"/>
    </vehicle>
    <vehicle id="492" depart="98.40">
        <route edges="gneE1 gneE2"/>
    </vehicle>
    <vehicle id="495" depart="99.00">
        <route edges="-gneE2 -gneE1"/>
    </vehicle>
    <vehicle id="496" depart="99.20">
        <route edges="-gneE2 -gneE1"/>
    </vehicle>
    <vehicle id="498" depart="99.60">
        <route edges="-gneE2 -gneE1"/>
    </vehicle>
    <vehicle id="499" depart="99.80">
        <route edges="gneE1 gneE2"/>
    </vehicle>
    <vehicle id="501" depart="100.20">
        <route edges="gneE1 gneE2"/>
    </vehicle>
    <vehicle id="502" depart="100.40">
        <route edges="-gneE2 -gneE1"/>
    </vehicle>
    <vehicle id="503" depart="100.60">
        <route edges="-gneE2 -gneE1"/>
    </vehicle>
    <vehicle id="505" depart="101.00">
        <route edges="gneE1 gneE2"/>
    </vehicle>
    <vehicle id="510" depart="102.00">
        <route edges="-gneE2 -gneE1"/>
    </vehicle>
    <vehicle id="514" depart="102.80">
        <route edges="-gneE2 -gneE1"/>
    </vehicle>
    <vehicle id="515" depart="103.00">
        <route edges="-gneE2 -gneE1"/>
    </vehicle>
    <vehicle id="518" depart="103.60">
        <route edges="-gneE2 -gneE1"/>
    </vehicle>
    <vehicle id="519" depart="103.80">
        <route edges="-gneE2 -gneE1"/>
    </vehicle>
    <vehicle id="520" depart="104.00">
        <route edges="gneE1 gneE2"/>
    </vehicle>
    <vehicle id="522" depart="104.40">
        <route edges="gneE1 gneE2"/>
    </vehicle>
    <vehicle id="525" depart="105.00">
        <route edges="gneE1 gneE2"/>
    </vehicle>
    <vehicle id="528" depart="105.60">
        <route edges="-gneE2 -gneE1"/>
    </vehicle>
    <vehicle id="532" depart="106.40">
        <route edges="-gneE2 -gneE1"/>
    </vehicle>
    <vehicle id="533" depart="106.60">
        <route edges="gneE1 gneE2"/>
    </vehicle>
    <vehicle id="537" depart="107.40">
        <route edges="gneE1 gneE2"/>
    </vehicle>
    <vehicle id="538" depart="107.60">
        <route edges="gneE1 gneE2"/>
    </vehicle>
    <vehicle id="540" depart="108.00">
        <route edges="-gneE2 -gneE1"/>
    </vehicle>
    <vehicle id="541" depart="108.20">
        <route edges="-gneE2 -gneE1"/>
    </vehicle>
    <vehicle id="542" depart="108.40">
        <route edges="-gneE2 -gneE1"/>
    </vehicle>
    <vehicle id="544" depart="108.80">
        <route edges="-gneE2 -gneE1"/>
    </vehicle>
    <vehicle id="548" depart="109.60">
        <route edges="gneE1 gneE2"/>
    </vehicle>
    <vehicle id="549" depart="109.80">
        <route edges="gneE1 gneE2"/>
    </vehicle>
    <vehicle id="550" depart="110.00">
        <route edges="-gneE2 -gneE1"/>
    </vehicle>
    <vehicle id="552" depart="110.40">
        <route edges="gneE1 gneE2"/>
    </vehicle>
    <vehicle id="553" depart="110.60">
        <route edges="gneE1 gneE2"/>
    </vehicle>
    <vehicle id="559" depart="111.80">
        <route edges="gneE1 gneE2"/>
    </vehicle>
    <vehicle id="560" depart="112.00">
        <route edges="gneE1 gneE2"/>
    </vehicle>
    <vehicle id="561" depart="112.20">
        <route edges="gneE1 gneE2"/>
    </vehicle>
    <vehicle id="563" depart="112.60">
        <route edges="gneE1 gneE2"/>
    </vehicle>
    <vehicle id="564" depart="112.80">
        <route edges="-gneE2 -gneE1"/>
    </vehicle>
    <vehicle id="566" depart="113.20">
        <route edges="-gneE2 -gneE1"/>
    </vehicle>
    <vehicle id="567" depart="113.40">
        <route edges="gneE1 gneE2"/>
    </vehicle>
    <vehicle id="568" depart="113.60">
        <route edges="-gneE2 -gneE1"/>
    </vehicle>
    <vehicle id="571" depart="114.20">
        <route edges="-gneE2 -gneE1"/>
    </vehicle>
    <vehicle id="573" depart="114.60">
        <route edges="gneE1 gneE2"/>
    </vehicle>
    <vehicle id="574" depart="114.80">
        <route edges="-gneE2 -gneE1"/>
    </vehicle>
    <vehicle id="578" depart="115.60">
        <route edges="-gneE2 -gneE1"/>
    </vehicle>
    <vehicle id="580" depart="116.00">
        <route edges="-gneE2 -gneE1"/>
    </vehicle>
    <vehicle id="584" depart="116.80">
        <route edges="-gneE2 -gneE1"/>
    </vehicle>
    <vehicle id="585" depart="117.00">
        <route edges="-gneE2 -gneE1"/>
    </vehicle>
    <vehicle id="586" depart="117.20">
        <route edges="-gneE2 -gneE1"/>
    </vehicle>
    <vehicle id="588" depart="117.60">
        <route edges="-gneE2 -gneE1"/>
    </vehicle>
    <vehicle id="589" depart="117.80">
        <route edges="gneE1 gneE2"/>
    </vehicle>
    <vehicle id="590" depart="118.00">
        <route edges="gneE1 gneE2"/>
    </vehicle>
    <vehicle id="592" depart="118.40">
        <route edges="-gneE2 -gneE1"/>
    </vehicle>
    <vehicle id="593" depart="118.60">
        <route edges="gneE1 gneE2"/>
    </vehicle>
    <vehicle id="594" depart="118.80">
        <route edges="gneE1 gneE2"/>
    </vehicle>
    <vehicle id="596" depart="119.20">
        <route edges="-gneE2 -gneE1"/>
    </vehicle>
    <vehicle id="598" depart="119.60">
        <route edges="gneE1 gneE2"/>
    </vehicle>
    <vehicle id="601" depart="120.20">
        <route edges="gneE1 gneE2"/>
    </vehicle>
    <vehicle id="602" depart="120.40">
        <route edges="-gneE2 -gneE1"/>
    </vehicle>
    <vehicle id="603" depart="120.60">
        <route edges="-gneE2 -gneE1"/>
    </vehicle>
    <vehicle id="607" depart="121.40">
        <route edges="gneE1 gneE2"/>
    </vehicle>
    <vehicle id="609" depart="121.80">
        <route edges="-gneE2 -gneE1"/>
    </vehicle>
    <vehicle id="610" depart="122.00">
        <route edges="gneE1 gneE2"/>
    </vehicle>
    <vehicle id="613" depart="122.60">
        <route edges="gneE1 gneE2"/>
    </vehicle>
    <vehicle id="615" depart="123.00">
        <route edges="gneE1 gneE2"/>
    </vehicle>
    <vehicle id="616" depart="123.20">
        <route edges="gneE1 gneE2"/>
    </vehicle>
    <vehicle id="618" depart="123.60">