<?xml version="1.0" encoding="UTF-8"?>

<!-- generated on 2023-05-25 16:35:29.686579 by randomTrips.py v1_17_0+0000-737931d58da
<configuration>
    <net-file value="map.net.xml"/>
    <output-trip-file value="bus_trips.xml"/>
    <route-file value="bus_routes.rou.xml"/>
    <trip-attributes value="accel=&quot;0.8&quot;"/>
    <end value="600.0"/>
    <vehicle-class value="bus"/>
    <period value="30.0"/>
</configuration>
-->

<!-- generated on 2023-05-25 16:35:29 by Eclipse SUMO duarouter Version 1.17.0
<configuration xmlns:xsi="http://www.w3.org/2001/XMLSchema-instance" xsi:noNamespaceSchemaLocation="http://sumo.dlr.de/xsd/duarouterConfiguration.xsd">

    <input>
        <net-file value="map.net.xml"/>
        <route-files value="bus_trips.xml"/>
    </input>

    <output>
        <output-file value="bus_routes.rou.xml"/>
        <alternatives-output value="NUL"/>
    </output>

    <time>
        <begin value="0"/>
        <end value="600.0"/>
    </time>

    <report>
        <no-warnings value="true"/>
        <ignore-errors value="true"/>
        <no-step-log value="true"/>
    </report>

</configuration>
-->

<routes xmlns:xsi="http://www.w3.org/2001/XMLSchema-instance" xsi:noNamespaceSchemaLocation="http://sumo.dlr.de/xsd/routes_file.xsd">
    <vType id="bus" vClass="bus" accel="0.8"/>
    <vehicle id="trailerbusbus1" type="bus" depart="30.00">
        <route edges="-gneE3 -gneE0"/>
    </vehicle>
    <vehicle id="trailerbusbus2" type="bus" depart="60.00">
        <route edges="gneE0 gneE1"/>
    </vehicle>
    <vehicle id="trailerbusbus3" type="bus" depart="90.00">
        <route edges="gneE2 -gneE0"/>
    </vehicle>
    <vehicle id="trailerbusbus4" type="bus" depart="120.00">
        <route edges="-gneE3 -gneE0"/>
    </vehicle>
    <vehicle id="trailerbusbus6" type="bus" depart="180.00">
        <route edges="-gneE1 -gneE0"/>
    </vehicle>
    <vehicle id="trailerbusbus7" type="bus" depart="210.00">
        <route edges="gneE0 gneE1"/>
    </vehicle>
    <vehicle id="trailerbusbus9" type="bus" depart="270.00">
        <route edges="gneE2 -gneE0"/>
    </vehicle>
    <vehicle id="trailerbusbus10" type="bus" depart="300.00">
        <route edges="gneE2 gneE1"/>
    </vehicle>
    <vehicle id="trailerbusbus11" type="bus" depart="330.00">
        <route edges="-gneE3 -gneE0"/>
    </vehicle>
    <vehicle id="trailerbusbus13" type="bus" depart="390.00">
        <route edges="-gneE1 -gneE0"/>
    </vehicle>
    <vehicle id="trailerbusbus14" type="bus" depart="420.00">
        <route edges="gneE2 gneE1"/>
    </vehicle>
    <vehicle id="trailerbusbus15" type="bus" depart="450.00">
        <route edges="gneE2 gneE1"/>
    </vehicle>
    <vehicle id="trailerbusbus16" type="bus" depart="480.00">
        <route edges="gneE0 gneE3"/>
    </vehicle>
    <vehicle id="trailerbusbus17" type="bus" depart="510.00">
        <route edges="-gneE3 gneE1"/>
    </vehicle>
    <vehicle id="trailerbusbus18" type="bus" depart="540.00">
        <route edges="gneE2 gneE1"/>
    </vehicle>
    <vehicle id="trailerbusbus19" type="bus" depart="570.00">
        <route edges="gneE2 gneE1"/>
    </vehicle>
</routes>
