<?xml version="1.0" encoding="UTF-8"?>

<!-- generated on 2023-05-25 16:35:35.152209 by randomTrips.py v1_17_0+0000-737931d58da
<configuration>
    <net-file value="map.net.xml"/>
    <output-trip-file value="passenger_trips.xml"/>
    <route-file value="passenger_routes.rou.xml"/>
    <trip-attributes value="color=&quot;255,255,255&quot;"/>
    <end value="600.0"/>
    <vehicle-class value="passenger"/>
    <period value="0.1"/>
</configuration>
-->

<!-- generated on 2023-05-25 16:35:34 by Eclipse SUMO duarouter Version 1.17.0
<configuration xmlns:xsi="http://www.w3.org/2001/XMLSchema-instance" xsi:noNamespaceSchemaLocation="http://sumo.dlr.de/xsd/duarouterConfiguration.xsd">

    <input>
        <net-file value="map.net.xml"/>
        <route-files value="passenger_trips.xml"/>
    </input>

    <output>
        <output-file value="passenger_routes.rou.xml"/>
        <alternatives-output value="NUL"/>
    </output>

    <time>
        <begin value="0"/>
        <end value="600.0"/>
    </time>

    <report>
        <no-warnings value="true"/>
        <ignore-errors value="true"/>
        <no-step-log value="true"/>
    </report>

</configuration>
-->

<routes xmlns:xsi="http://www.w3.org/2001/XMLSchema-instance" xsi:noNamespaceSchemaLocation="http://sumo.dlr.de/xsd/routes_file.xsd">
    <vType id="passenger" vClass="passenger" color="white"/>
    <vehicle id="pass1" type="passenger" depart="0.10">
        <route edges="-gneE3 -gneE0"/>
    </vehicle>
    <vehicle id="pass2" type="passenger" depart="0.20">
        <route edges="gneE0 gneE1"/>
    </vehicle>
    <vehicle id="pass3" type="passenger" depart="0.30">
        <route edges="gneE2 -gneE0"/>
    </vehicle>
    <vehicle id="pass4" type="passenger" depart="0.40">
        <route edges="-gneE3 -gneE0"/>
    </vehicle>
    <vehicle id="pass6" type="passenger" depart="0.60">
        <route edges="-gneE1 -gneE0"/>
    </vehicle>
    <vehicle id="pass7" type="passenger" depart="0.70">
        <route edges="gneE0 gneE1"/>
    </vehicle>
    <vehicle id="pass9" type="passenger" depart="0.90">
        <route edges="gneE2 -gneE0"/>
    </vehicle>
    <vehicle id="pass10" type="passenger" depart="1.00">
        <route edges="gneE2 gneE1"/>
    </vehicle>
    <vehicle id="pass11" type="passenger" depart="1.10">
        <route edges="-gneE3 -gneE0"/>
    </vehicle>
    <vehicle id="pass13" type="passenger" depart="1.30">
        <route edges="-gneE1 -gneE0"/>
    </vehicle>
    <vehicle id="pass14" type="passenger" depart="1.40">
        <route edges="gneE2 gneE1"/>
    </vehicle>
    <vehicle id="pass15" type="passenger" depart="1.50">
        <route edges="gneE2 gneE1"/>
    </vehicle>
    <vehicle id="pass16" type="passenger" depart="1.60">
        <route edges="gneE0 gneE3"/>
    </vehicle>
    <vehicle id="pass17" type="passenger" depart="1.70">
        <route edges="-gneE3 gneE1"/>
    </vehicle>
    <vehicle id="pass18" type="passenger" depart="1.80">
        <route edges="gneE2 gneE1"/>
    </vehicle>
    <vehicle id="pass19" type="passenger" depart="1.90">
        <route edges="gneE2 gneE1"/>
    </vehicle>
    <vehicle id="pass21" type="passenger" depart="2.10">
        <route edges="-gneE1 -gneE2"/>
    </vehicle>
    <vehicle id="pass22" type="passenger" depart="2.20">
        <route edges="-gneE1 -gneE0"/>
    </vehicle>
    <vehicle id="pass23" type="passenger" depart="2.30">
        <route edges="-gneE1 -gneE2"/>
    </vehicle>
    <vehicle id="pass24" type="passenger" depart="2.40">
        <route edges="gneE0 -gneE2"/>
    </vehicle>
    <vehicle id="pass25" type="passenger" depart="2.50">
        <route edges="-gneE3 -gneE0"/>
    </vehicle>
    <vehicle id="pass27" type="passenger" depart="2.70">
        <route edges="gneE0 gneE1"/>
    </vehicle>
    <vehicle id="pass29" type="passenger" depart="2.90">
        <route edges="-gneE1 -gneE2"/>
    </vehicle>
    <vehicle id="pass30" type="passenger" depart="3.00">
        <route edges="gneE2 gneE1"/>
    </vehicle>
    <vehicle id="pass31" type="passenger" depart="3.10">
        <route edges="gneE0 gneE1"/>
    </vehicle>
    <vehicle id="pass32" type="passenger" depart="3.20">
        <route edges="gneE2 gneE3"/>
    </vehicle>
    <vehicle id="pass33" type="passenger" depart="3.30">
        <route edges="-gneE1 -gneE0"/>
    </vehicle>
    <vehicle id="pass34" type="passenger" depart="3.40">
        <route edges="-gneE3 -gneE2"/>
    </vehicle>
    <vehicle id="pass35" type="passenger" depart="3.50">
        <route edges="-gneE1 gneE3"/>
    </vehicle>
    <vehicle id="pass37" type="passenger" depart="3.70">
        <route edges="gneE0 -gneE2"/>
    </vehicle>
    <vehicle id="pass39" type="passenger" depart="3.90">
        <route edges="-gneE3 -gneE0"/>
    </vehicle>
    <vehicle id="pass40" type="passenger" depart="4.00">
        <route edges="gneE0 -gneE2"/>
    </vehicle>
    <vehicle id="pass41" type="passenger" depart="4.10">
        <route edges="gneE0 gneE3"/>
    </vehicle>
    <vehicle id="pass42" type="passenger" depart="4.20">
        <route edges="-gneE3 -gneE0"/>
    </vehicle>
    <vehicle id="pass43" type="passenger" depart="4.30">
        <route edges="gneE2 gneE1"/>
    </vehicle>
    <vehicle id="pass44" type="passenger" depart="4.40">
        <route edges="-gneE1 -gneE0"/>
    </vehicle>
    <vehicle id="pass47" type="passenger" depart="4.70">
        <route edges="-gneE1 -gneE2"/>
    </vehicle>
    <vehicle id="pass48" type="passenger" depart="4.80">
        <route edges="gneE2 gneE1"/>
    </vehicle>
    <vehicle id="pass49" type="passenger" depart="4.90">
        <route edges="gneE2 gneE3"/>
    </vehicle>
    <vehicle id="pass51" type="passenger" depart="5.10">
        <route edges="gneE0 gneE1"/>
    </vehicle>
    <vehicle id="pass52" type="passenger" depart="5.20">
        <route edges="-gneE3 gneE1"/>
    </vehicle>
    <vehicle id="pass53" type="passenger" depart="5.30">
        <route edges="-gneE1 -gneE2"/>
    </vehicle>
    <vehicle id="pass57" type="passenger" depart="5.70">
        <route edges="gneE2 gneE3"/>
    </vehicle>
    <vehicle id="pass58" type="passenger" depart="5.80">
        <route edges="-gneE3 gneE1"/>
    </vehicle>
    <vehicle id="pass60" type="passenger" depart="6.00">
        <route edges="gneE2 gneE1"/>
    </vehicle>
    <vehicle id="pass61" type="passenger" depart="6.10">
        <route edges="gneE2 gneE1"/>
    </vehicle>
    <vehicle id="pass62" type="passenger" depart="6.20">
        <route edges="-gneE1 -gneE2"/>
    </vehicle>
    <vehicle id="pass63" type="passenger" depart="6.30">
        <route edges="-gneE1 gneE3"/>
    </vehicle>
    <vehicle id="pass64" type="passenger" depart="6.40">
        <route edges="gneE2 gneE3"/>
    </vehicle>
    <vehicle id="pass65" type="passenger" depart="6.50">
        <route edges="-gneE3 -gneE0"/>
    </vehicle>
    <vehicle id="pass66" type="passenger" depart="6.60">
        <route edges="gneE2 gneE3"/>
    </vehicle>
    <vehicle id="pass67" type="passenger" depart="6.70">
        <route edges="-gneE1 -gneE2"/>
    </vehicle>
    <vehicle id="pass68" type="passenger" depart="6.80">
        <route edges="-gneE1 gneE3"/>
    </vehicle>
    <vehicle id="pass69" type="passenger" depart="6.90">
        <route edges="gneE2 -gneE0"/>
    </vehicle>
    <vehicle id="pass70" type="passenger" depart="7.00">
        <route edges="-gneE3 gneE1"/>
    </vehicle>
    <vehicle id="pass72" type="passenger" depart="7.20">
        <route edges="-gneE3 -gneE0"/>
    </vehicle>
    <vehicle id="pass73" type="passenger" depart="7.30">
        <route edges="gneE0 gneE1"/>
    </vehicle>
    <vehicle id="pass74" type="passenger" depart="7.40">
        <route edges="-gneE1 -gneE2"/>
    </vehicle>
    <vehicle id="pass75" type="passenger" depart="7.50">
        <route edges="gneE2 gneE1"/>
    </vehicle>
    <vehicle id="pass76" type="passenger" depart="7.60">
        <route edges="-gneE3 gneE1"/>
    </vehicle>
    <vehicle id="pass77" type="passenger" depart="7.70">
        <route edges="-gneE1 -gneE0"/>
    </vehicle>
    <vehicle id="pass78" type="passenger" depart="7.80">
        <route edges="-gneE3 gneE1"/>
    </vehicle>
    <vehicle id="pass79" type="passenger" depart="7.90">
        <route edges="-gneE1 -gneE0"/>
    </vehicle>
    <vehicle id="pass81" type="passenger" depart="8.10">
        <route edges="-gneE1 gneE3"/>
    </vehicle>
    <vehicle id="pass82" type="passenger" depart="8.20">
        <route edges="gneE2 -gneE0"/>
    </vehicle>
    <vehicle id="pass84" type="passenger" depart="8.40">
        <route edges="-gneE1 -gneE0"/>
    </vehicle>
    <vehicle id="pass85" type="passenger" depart="8.50">
        <route edges="gneE2 gneE1"/>
    </vehicle>
    <vehicle id="pass87" type="passenger" depart="8.70">
        <route edges="gneE2 -gneE0"/>
    </vehicle>
    <vehicle id="pass88" type="passenger" depart="8.80">
        <route edges="-gneE1 -gneE2"/>
    </vehicle>
    <vehicle id="pass89" type="passenger" depart="8.90">
        <route edges="-gneE3 -gneE2"/>
    </vehicle>
    <vehicle id="pass90" type="passenger" depart="9.00">
        <route edges="gneE0 gneE1"/>
    </vehicle>
    <vehicle id="pass91" type="passenger" depart="9.10">
        <route edges="gneE2 -gneE0"/>
    </vehicle>
    <vehicle id="pass92" type="passenger" depart="9.20">
        <route edges="-gneE3 -gneE2"/>
    </vehicle>
    <vehicle id="pass93" type="passenger" depart="9.30">
        <route edges="gneE2 -gneE0"/>
    </vehicle>
    <vehicle id="pass94" type="passenger" depart="9.40">
        <route edges="-gneE1 -gneE2"/>
    </vehicle>
    <vehicle id="pass95" type="passenger" depart="9.50">
        <route edges="-gneE3 -gneE2"/>
    </vehicle>
    <vehicle id="pass96" type="passenger" depart="9.60">
        <route edges="-gneE1 gneE3"/>
    </vehicle>
    <vehicle id="pass99" type="passenger" depart="9.90">
        <route edges="gneE2 gneE3"/>
    </vehicle>
    <vehicle id="pass100" type="passenger" depart="10.00">
        <route edges="gneE2 gneE3"/>
    </vehicle>
    <vehicle id="pass101" type="passenger" depart="10.10">
        <route edges="gneE2 -gneE0"/>
    </vehicle>
    <vehicle id="pass102" type="passenger" depart="10.20">
        <route edges="-gneE3 -gneE0"/>
    </vehicle>
    <vehicle id="pass103" type="passenger" depart="10.30">
        <route edges="-gneE3 -gneE0"/>
    </vehicle>
    <vehicle id="pass106" type="passenger" depart="10.60">
        <route edges="-gneE3 -gneE2"/>
    </vehicle>
    <vehicle id="pass107" type="passenger" depart="10.70">
        <route edges="gneE2 gneE3"/>
    </vehicle>
    <vehicle id="pass108" type="passenger" depart="10.80">
        <route edges="gneE0 gneE1"/>
    </vehicle>
    <vehicle id="pass109" type="passenger" depart="10.90">
        <route edges="-gneE1 -gneE2"/>
    </vehicle>
    <vehicle id="pass110" type="passenger" depart="11.00">
        <route edges="gneE2 gneE1"/>
    </vehicle>
    <vehicle id="pass111" type="passenger" depart="11.10">
        <route edges="gneE0 gneE1"/>
    </vehicle>
    <vehicle id="pass113" type="passenger" depart="11.30">
        <route edges="gneE0 gneE3"/>
    </vehicle>
    <vehicle id="pass114" type="passenger" depart="11.40">
        <route edges="-gneE1 gneE3"/>
    </vehicle>
    <vehicle id="pass115" type="passenger" depart="11.50">
        <route edges="-gneE1 -gneE0"/>
    </vehicle>
    <vehicle id="pass116" type="passenger" depart="11.60">
        <route edges="gneE0 gneE1"/>
    </vehicle>
    <vehicle id="pass117" type="passenger" depart="11.70">
        <route edges="-gneE1 -gneE0"/>
    </vehicle>
    <vehicle id="pass118" type="passenger" depart="11.80">
        <route edges="gneE2 -gneE0"/>
    </vehicle>
    <vehicle id="pass119" type="passenger" depart="11.90">
        <route edges="gneE0 gneE1"/>
    </vehicle>
    <vehicle id="pass120" type="passenger" depart="12.00">
        <route edges="-gneE3 gneE1"/>
    </vehicle>
    <vehicle id="pass121" type="passenger" depart="12.10">
        <route edges="gneE0 gneE3"/>
    </vehicle>
    <vehicle id="pass123" type="passenger" depart="12.30">
        <route edges="-gneE1 -gneE2"/>
    </vehicle>
    <vehicle id="pass124" type="passenger" depart="12.40">
        <route edges="gneE0 -gneE2"/>
    </vehicle>
    <vehicle id="pass126" type="passenger" depart="12.60">
        <route edges="-gneE1 -gneE2"/>
    </vehicle>
    <vehicle id="pass127" type="passenger" depart="12.70">
        <route edges="gneE2 gneE3"/>
    </vehicle>
    <vehicle id="pass128" type="passenger" depart="12.80">
        <route edges="-gneE1 -gneE0"/>
    </vehicle>
    <vehicle id="pass130" type="passenger" depart="13.00">
        <route edges="gneE2 gneE3"/>
    </vehicle>
    <vehicle id="pass131" type="passenger" depart="13.10">
        <route edges="-gneE3 -gneE0"/>
    </vehicle>
    <vehicle id="pass132" type="passenger" depart="13.20">
        <route edges="gneE2 gneE1"/>
    </vehicle>
    <vehicle id="pass133" type="passenger" depart="13.30">
        <route edges="gneE0 gneE3"/>
    </vehicle>
    <vehicle id="pass136" type="passenger" depart="13.60">
        <route edges="gneE0 gneE3"/>
    </vehicle>
    <vehicle id="pass137" type="passenger" depart="13.70">
        <route edges="-gneE1 -gneE0"/>
    </vehicle>
    <vehicle id="pass139" type="passenger" depart="13.90">
        <route edges="-gneE3 gneE1"/>
    </vehicle>
    <vehicle id="pass141" type="passenger" depart="14.10">
        <route edges="gneE0 -gneE2"/>
    </vehicle>
    <vehicle id="pass143" type="passenger" depart="14.30">
        <route edges="gneE2 -gneE0"/>
    </vehicle>
    <vehicle id="pass144" type="passenger" depart="14.40">
        <route edges="-gneE3 -gneE2"/>
    </vehicle>
    <vehicle id="pass145" type="passenger" depart="14.50">
        <route edges="-gneE1 gneE3"/>
    </vehicle>
    <vehicle id="pass146" type="passenger" depart="14.60">
        <route edges="gneE0 -gneE2"/>
    </vehicle>
    <vehicle id="pass147" type="passenger" depart="14.70">
        <route edges="gneE0 gneE1"/>
    </vehicle>
    <vehicle id="pass148" type="passenger" depart="14.80">
        <route edges="-gneE3 -gneE0"/>
    </vehicle>
    <vehicle id="pass149" type="passenger" depart="14.90">
        <route edges="-gneE1 gneE3"/>
    </vehicle>
    <vehicle id="pass150" type="passenger" depart="15.00">
        <route edges="gneE2 gneE1"/>
    </vehicle>
    <vehicle id="pass151" type="passenger" depart="15.10">
        <route edges="gneE2 gneE1"/>
    </vehicle>
    <vehicle id="pass152" type="passenger" depart="15.20">
        <route edges="-gneE1 -gneE0"/>
    </vehicle>
    <vehicle id="pass154" type="passenger" depart="15.40">
        <route edges="gneE2 gneE3"/>
    </vehicle>
    <vehicle id="pass155" type="passenger" depart="15.50">
        <route edges="gneE2 -gneE0"/>
    </vehicle>
    <vehicle id="pass156" type="passenger" depart="15.60">
        <route edges="-gneE1 -gneE0"/>
    </vehicle>
    <vehicle id="pass157" type="passenger" depart="15.70">
        <route edges="gneE2 gneE3"/>
    </vehicle>
    <vehicle id="pass158" type="passenger" depart="15.80">
        <route edges="-gneE3 gneE1"/>
    </vehicle>
    <vehicle id="pass159" type="passenger" depart="15.90">
        <route edges="-gneE1 gneE3"/>
    </vehicle>
    <vehicle id="pass160" type="passenger" depart="16.00">
        <route edges="gneE2 gneE3"/>
    </vehicle>
    <vehicle id="pass161" type="passenger" depart="16.10">
        <route edges="gneE2 gneE3"/>
    </vehicle>
    <vehicle id="pass164" type="passenger" depart="16.40">
        <route edges="gneE2 gneE3"/>
    </vehicle>
    <vehicle id="pass166" type="passenger" depart="16.60">
        <route edges="gneE2 -gneE0"/>
    </vehicle>
    <vehicle id="pass167" type="passenger" depart="16.70">
        <route edges="gneE2 gneE3"/>
    </vehicle>
    <vehicle id="pass168" type="passenger" depart="16.80">
        <route edges="-gneE1 gneE3"/>
    </vehicle>
    <vehicle id="pass169" type="passenger" depart="16.90">
        <route edges="-gneE3 -gneE2"/>
    </vehicle>
    <vehicle id="pass170" type="passenger" depart="17.00">
        <route edges="gneE2 -gneE0"/>
    </vehicle>
    <vehicle id="pass171" type="passenger" depart="17.10">
        <route edges="-gneE1 -gneE0"/>
    </vehicle>
    <vehicle id="pass174" type="passenger" depart="17.40">
        <route edges="gneE0 -gneE2"/>
    </vehicle>
    <vehicle id="pass175" type="passenger" depart="17.50">
        <route edges="gneE2 gneE1"/>
    </vehicle>
    <vehicle id="pass176" type="passenger" depart="17.60">
        <route edges="gneE2 -gneE0"/>
    </vehicle>
    <vehicle id="pass177" type="passenger" depart="17.70">
        <route edges="gneE2 -gneE0"/>
    </vehicle>
    <vehicle id="pass179" type="passenger" depart="17.90">
        <route edges="-gneE1 -gneE2"/>
    </vehicle>
    <vehicle id="pass180" type="passenger" depart="18.00">
        <route edges="gneE0 -gneE2"/>
    </vehicle>
    <vehicle id="pass181" type="passenger" depart="18.10">
        <route edges="gneE0 gneE1"/>
    </vehicle>
    <vehicle id="pass182" type="passenger" depart="18.20">
        <route edges="-gneE3 gneE1"/>
    </vehicle>
    <vehicle id="pass183" type="passenger" depart="18.30">
        <route edges="-gneE3 gneE1"/>
    </vehicle>
    <vehicle id="pass184" type="passenger" depart="18.40">
        <route edges="-gneE1 gneE3"/>
    </vehicle>
    <vehicle id="pass185" type="passenger" depart="18.50">
        <route edges="gneE0 gneE1"/>
    </vehicle>
    <vehicle id="pass186" type="passenger" depart="18.60">
        <route edges="gneE0 gneE1"/>
    </vehicle>
    <vehicle id="pass187" type="passenger" depart="18.70">
        <route edges="-gneE3 -gneE0"/>
    </vehicle>
    <vehicle id="pass188" type="passenger" depart="18.80">
        <route edges="gneE0 -gneE2"/>
    </vehicle>
    <vehicle id="pass190" type="passenger" depart="19.00">
        <route edges="gneE0 -gneE2"/>
    </vehicle>
    <vehicle id="pass191" type="passenger" depart="19.10">
        <route edges="-gneE3 -gneE2"/>
    </vehicle>
    <vehicle id="pass192" type="passenger" depart="19.20">
        <route edges="-gneE3 -gneE2"/>
    </vehicle>
    <vehicle id="pass193" type="passenger" depart="19.30">
        <route edges="-gneE1 -gneE2"/>
    </vehicle>
    <vehicle id="pass194" type="passenger" depart="19.40">
        <route edges="gneE2 gneE1"/>
    </vehicle>
    <vehicle id="pass195" type="passenger" depart="19.50">
        <route edges="gneE2 gneE1"/>
    </vehicle>
    <vehicle id="pass196" type="passenger" depart="19.60">
        <route edges="-gneE3 gneE1"/>
    </vehicle>
    <vehicle id="pass197" type="passenger" depart="19.70">
        <route edges="-gneE1 -gneE2"/>
    </vehicle>
    <vehicle id="pass198" type="passenger" depart="19.80">
        <route edges="-gneE3 gneE1"/>
    </vehicle>
    <vehicle id="pass199" type="passenger" depart="19.90">
        <route edges="gneE0 -gneE2"/>
    </vehicle>
    <vehicle id="pass200" type="passenger" depart="20.00">
        <route edges="-gneE3 -gneE0"/>
    </vehicle>
    <vehicle id="pass202" type="passenger" depart="20.20">
        <route edges="gneE2 -gneE0"/>
    </vehicle>
    <vehicle id="pass204" type="passenger" depart="20.40">
        <route edges="gneE0 -gneE2"/>
    </vehicle>
    <vehicle id="pass205" type="passenger" depart="20.50">
        <route edges="gneE2 gneE3"/>
    </vehicle>
    <vehicle id="pass207" type="passenger" depart="20.70">
        <route edges="-gneE1 -gneE0"/>
    </vehicle>
    <vehicle id="pass208" type="passenger" depart="20.80">
        <route edges="-gneE1 -gneE2"/>
    </vehicle>
    <vehicle id="pass209" type="passenger" depart="20.90">
        <route edges="gneE2 -gneE0"/>
    </vehicle>
    <vehicle id="pass210" type="passenger" depart="21.00">
        <route edges="-gneE3 gneE1"/>
    </vehicle>
    <vehicle id="pass212" type="passenger" depart="21.20">
        <route edges="-gneE3 -gneE0"/>
    </vehicle>
    <vehicle id="pass214" type="passenger" depart="21.40">
        <route edges="gneE2 gneE3"/>
    </vehicle>
    <vehicle id="pass215" type="passenger" depart="21.50">
        <route edges="-gneE1 -gneE2"/>
    </vehicle>
    <vehicle id="pass216" type="passenger" depart="21.60">
        <route edges="-gneE1 gneE3"/>
    </vehicle>
    <vehicle id="pass218" type="passenger" depart="21.80">
        <route edges="-gneE1 gneE3"/>
    </vehicle>
    <vehicle id="pass220" type="passenger" depart="22.00">
        <route edges="gneE0 gneE3"/>
    </vehicle>
    <vehicle id="pass221" type="passenger" depart="22.10">
        <route edges="gneE0 gneE3"/>
    </vehicle>
    <vehicle id="pass222" type="passenger" depart="22.20">
        <route edges="gneE2 gneE1"/>
    </vehicle>
    <vehicle id="pass223" type="passenger" depart="22.30">
        <route edges="gneE0 gneE1"/>
    </vehicle>
    <vehicle id="pass224" type="passenger" depart="22.40">
        <route edges="gneE2 gneE1"/>
    </vehicle>
    <vehicle id="pass225" type="passenger" depart="22.50">
        <route edges="gneE2 gneE1"/>
    </vehicle>
    <vehicle id="pass226" type="passenger" depart="22.60">
        <route edges="-gneE3 -gneE2"/>
    </vehicle>
    <vehicle id="pass228" type="passenger" depart="22.80">
        <route edges="gneE2 gneE1"/>
    </vehicle>
    <vehicle id="pass229" type="passenger" depart="22.90">
        <route edges="gneE0 -gneE2"/>
    </vehicle>
    <vehicle id="pass230" type="passenger" depart="23.00">
        <route edges="-gneE1 -gneE2"/>
    </vehicle>
    <vehicle id="pass231" type="passenger" depart="23.10">
        <route edges="-gneE3 -gneE2"/>
    </vehicle>
    <vehicle id="pass235" type="passenger" depart="23.50">
        <route edges="-gneE3 gneE1"/>
    </vehicle>
    <vehicle id="pass236" type="passenger" depart="23.60">
        <route edges="-gneE3 -gneE0"/>
    </vehicle>
    <vehicle id="pass238" type="passenger" depart="23.80">
        <route edges="gneE0 gneE1"/>
    </vehicle>
    <vehicle id="pass239" type="passenger" depart="23.90">
        <route edges="gneE2 gneE3"/>
    </vehicle>
    <vehicle id="pass240" type="passenger" depart="24.00">
        <route edges="-gneE3 -gneE0"/>
    </vehicle>
    <vehicle id="pass242" type="passenger" depart="24.20">
        <route edges="gneE2 gneE3"/>
    </vehicle>
    <vehicle id="pass243" type="passenger" depart="24.30">
        <route edges="-gneE3 gneE1"/>
    </vehicle>
    <vehicle id="pass244" type="passenger" depart="24.40">
        <route edges="gneE0 gneE1"/>
    </vehicle>
    <vehicle id="pass245" type="passenger" depart="24.50">
        <route edges="-gneE1 -gneE0"/>
    </vehicle>
    <vehicle id="pass246" type="passenger" depart="24.60">
        <route edges="-gneE3 -gneE0"/>
    </vehicle>
    <vehicle id="pass247" type="passenger" depart="24.70">
        <route edges="-gneE3 gneE1"/>
    </vehicle>
    <vehicle id="pass248" type="passenger" depart="24.80">
        <route edges="-gneE3 -gneE0"/>
    </vehicle>
    <vehicle id="pass249" type="passenger" depart="24.90">
        <route edges="-gneE3 -gneE0"/>
    </vehicle>
    <vehicle id="pass251" type="passenger" depart="25.10">
        <route edges="-gneE3 gneE1"/>
    </vehicle>
    <vehicle id="pass253" type="passenger" depart="25.30">
        <route edges="-gneE1 -gneE2"/>
    </vehicle>
    <vehicle id="pass254" type="passenger" depart="25.40">
        <route edges="-gneE1 -gneE2"/>
    </vehicle>
    <vehicle id="pass255" type="passenger" depart="25.50">
        <route edges="-gneE1 -gneE2"/>
    </vehicle>
    <vehicle id="pass257" type="passenger" depart="25.70">
        <route edges="gneE2 gneE3"/>
    </vehicle>
    <vehicle id="pass258" type="passenger" depart="25.80">
        <route edges="-gneE3 -gneE0"/>
    </vehicle>
    <vehicle id="pass261" type="passenger" depart="26.10">
        <route edges="gneE0 gneE3"/>
    </vehicle>
    <vehicle id="pass262" type="passenger" depart="26.20">
        <route edges="gneE0 gneE3"/>
    </vehicle>
    <vehicle id="pass263" type="passenger" depart="26.30">
        <route edges="gneE2 -gneE0"/>
    </vehicle>
    <vehicle id="pass264" type="passenger" depart="26.40">
        <route edges="-gneE1 -gneE0"/>
    </vehicle>
    <vehicle id="pass267" type="passenger" depart="26.70">
        <route edges="gneE0 gneE3"/>
    </vehicle>
    <vehicle id="pass270" type="passenger" depart="27.00">
        <route edges="gneE2 gneE3"/>
    </vehicle>
    <vehicle id="pass271" type="passenger" depart="27.10">
        <route edges="-gneE1 -gneE0"/>
    </vehicle>
    <vehicle id="pass272" type="passenger" depart="27.20">
        <route edges="-gneE3 gneE1"/>
    </vehicle>
    <vehicle id="pass275" type="passenger" depart="27.50">
        <route edges="gneE0 gneE1"/>
    </vehicle>
    <vehicle id="pass276" type="passenger" depart="27.60">
        <route edges="-gneE1 gneE3"/>
    </vehicle>
    <vehicle id="pass277" type="passenger" depart="27.70">
        <route edges="gneE2 gneE1"/>
    </vehicle>
    <vehicle id="pass278" type="passenger" depart="27.80">
        <route edges="-gneE1 gneE3"/>
    </vehicle>
    <vehicle id="pass280" type="passenger" depart="28.00">
        <route edges="-gneE3 -gneE2"/>
    </vehicle>
    <vehicle id="pass281" type="passenger" depart="28.10">
        <route edges="gneE0 -gneE2"/>
    </vehicle>
    <vehicle id="pass282" type="passenger" depart="28.20">
        <route edges="gneE2 gneE3"/>
    </vehicle>
    <vehicle id="pass283" type="passenger" depart="28.30">
        <route edges="-gneE1 gneE3"/>
    </vehicle>
    <vehicle id="pass284" type="passenger" depart="28.40">
        <route edges="gneE0 gneE3"/>
    </vehicle>
    <vehicle id="pass285" type="passenger" depart="28.50">
        <route edges="gneE0 -gneE2"/>
    </vehicle>
    <vehicle id="pass286" type="passenger" depart="28.60">
        <route edges="gneE0 gneE3"/>
    </vehicle>
    <vehicle id="pass288" type="passenger" depart="28.80">
        <route edges="gneE0 -gneE2"/>
    </vehicle>
    <vehicle id="pass289" type="passenger" depart="28.90">
        <route edges="-gneE3 gneE1"/>
    </vehicle>
    <vehicle id="pass291" type="passenger" depart="29.10">
        <route edges="gneE2 -gneE0"/>
    </vehicle>
    <vehicle id="pass292" type="passenger" depart="29.20">
        <route edges="gneE2 -gneE0"/>
    </vehicle>
    <vehicle id="pass293" type="passenger" depart="29.30">
        <route edges="-gneE3 gneE1"/>
    </vehicle>
    <vehicle id="pass294" type="passenger" depart="29.40">
        <route edges="-gneE3 -gneE0"/>
    </vehicle>
    <vehicle id="pass295" type="passenger" depart="29.50">
        <route edges="gneE2 -gneE0"/>
    </vehicle>
    <vehicle id="pass296" type="passenger" depart="29.60">
        <route edges="-gneE1 gneE3"/>
    </vehicle>
    <vehicle id="pass298" type="passenger" depart="29.80">
        <route edges="gneE0 -gneE2"/>
    </vehicle>
    <vehicle id="pass299" type="passenger" depart="29.90">
        <route edges="-gneE1 gneE3"/>
    </vehicle>
    <vehicle id="pass302" type="passenger" depart="30.20">
        <route edges="gneE0 gneE1"/>
    </vehicle>
    <vehicle id="pass304" type="passenger" depart="30.40">
        <route edges="-gneE1 -gneE0"/>
    </vehicle>
    <vehicle id="pass305" type="passenger" depart="30.50">
        <route edges="gneE0 -gneE2"/>
    </vehicle>
    <vehicle id="pass306" type="passenger" depart="30.60">
        <route edges="gneE0 -gneE2"/>
    </vehicle>
    <vehicle id="pass307" type="passenger" depart="30.70">
        <route edges="gneE0 -gneE2"/>
    </vehicle>
    <vehicle id="pass308" type="passenger" depart="30.80">
        <route edges="gneE0 -gneE2"/>
    </vehicle>
    <vehicle id="pass309" type="passenger" depart="30.90">
        <route edges="gneE0 -gneE2"/>
    </vehicle>
    <vehicle id="pass310" type="passenger" depart="31.00">
        <route edges="-gneE3 -gneE0"/>
    </vehicle>
    <vehicle id="pass311" type="passenger" depart="31.10">
        <route edges="-gneE1 -gneE0"/>
    </vehicle>
    <vehicle id="pass312" type="passenger" depart="31.20">
        <route edges="gneE0 gneE3"/>
    </vehicle>
    <vehicle id="pass313" type="passenger" depart="31.30">
        <route edges="-gneE1 -gneE0"/>
    </vehicle>
    <vehicle id="pass314" type="passenger" depart="31.40">
        <route edges="-gneE3 gneE1"/>
    </vehicle>
    <vehicle id="pass315" type="passenger" depart="31.50">
        <route edges="gneE2 gneE1"/>
    </vehicle>
    <vehicle id="pass316" type="passenger" depart="31.60">
        <route edges="-gneE3 -gneE0"/>
    </vehicle>
    <vehicle id="pass317" type="passenger" depart="31.70">
        <route edges="-gneE1 -gneE0"/>
    </vehicle>
    <vehicle id="pass318" type="passenger" depart="31.80">
        <route edges="-gneE1 -gneE0"/>
    </vehicle>
    <vehicle id="pass319" type="passenger" depart="31.90">
        <route edges="gneE0 -gneE2"/>
    </vehicle>
    <vehicle id="pass320" type="passenger" depart="32.00">
        <route edges="gneE2 gneE1"/>
    </vehicle>
    <vehicle id="pass323" type="passenger" depart="32.30">
        <route edges="gneE2 gneE1"/>
    </vehicle>
    <vehicle id="pass324" type="passenger" depart="32.40">
        <route edges="-gneE3 -gneE2"/>
    </vehicle>
    <vehicle id="pass325" type="passenger" depart="32.50">
        <route edges="-gneE1 -gneE0"/>
    </vehicle>
    <vehicle id="pass329" type="passenger" depart="32.90">
        <route edges="-gneE1 -gneE0"/>
    </vehicle>
    <vehicle id="pass330" type="passenger" depart="33.00">
        <route edges="gneE0 -gneE2"/>
    </vehicle>
    <vehicle id="pass331" type="passenger" depart="33.10">
        <route edges="gneE2 -gneE0"/>
    </vehicle>
    <vehicle id="pass332" type="passenger" depart="33.20">
        <route edges="gneE2 gneE1"/>
    </vehicle>
    <vehicle id="pass333" type="passenger" depart="33.30">
        <route edges="gneE2 -gneE0"/>
    </vehicle>