<?xml version="1.0" encoding="UTF-8"?>

<!-- generated on 2023-05-25 16:35:36.683458 by randomTrips.py v1_17_0+0000-737931d58da
<configuration>
    <net-file value="map.net.xml"/>
    <output-trip-file value="trailer_trips.xml"/>
    <route-file value="trailer_routes.rou.xml"/>
    <trip-attributes value="color=&quot;223,179,180&quot; accel=&quot;0.5&quot;"/>
    <end value="600.0"/>
    <vehicle-class value="trailer"/>
    <period value="150.0"/>
</configuration>
-->

<routes xmlns:xsi="http://www.w3.org/2001/XMLSchema-instance" xsi:noNamespaceSchemaLocation="http://sumo.dlr.de/xsd/routes_file.xsd">
    <vType id="trailer" vClass="trailer" color="223,179,180" accel="0.5"/>
    <trip id="0" depart="0.00" from="gneE0" to="-gneE0" type="trailer"/>
    <trip id="1" depart="150.00" from="-gneE3" to="-gneE0" type="trailer"/>
    <trip id="2" depart="300.00" from="gneE0" to="gneE1" type="trailer"/>
    <trip id="3" depart="450.00" from="gneE2" to="-gneE0" type="trailer"/>
</routes>
