<?xml version="1.0" encoding="UTF-8"?>

<!-- generated on 2023-05-25 16:35:36.920437 by randomTrips.py v1_17_0+0000-737931d58da
<configuration>
    <net-file value="map.net.xml"/>
    <output-trip-file value="trailer_trips.xml"/>
    <route-file value="trailer_routes.rou.xml"/>
    <trip-attributes value="color=&quot;223,179,180&quot; accel=&quot;0.5&quot;"/>
    <end value="600.0"/>
    <vehicle-class value="trailer"/>
    <period value="150.0"/>
</configuration>
-->

<!-- generated on 2023-05-25 16:35:36 by Eclipse SUMO duarouter Version 1.17.0
<configuration xmlns:xsi="http://www.w3.org/2001/XMLSchema-instance" xsi:noNamespaceSchemaLocation="http://sumo.dlr.de/xsd/duarouterConfiguration.xsd">

    <input>
        <net-file value="map.net.xml"/>
        <route-files value="trailer_trips.xml"/>
    </input>

    <output>
        <output-file value="trailer_routes.rou.xml"/>
        <alternatives-output value="NUL"/>
    </output>

    <time>
        <begin value="0"/>
        <end value="600.0"/>
    </time>

    <report>
        <no-warnings value="true"/>
        <ignore-errors value="true"/>
        <no-step-log value="true"/>
    </report>

</configuration>
-->

<routes xmlns:xsi="http://www.w3.org/2001/XMLSchema-instance" xsi:noNamespaceSchemaLocation="http://sumo.dlr.de/xsd/routes_file.xsd">
    <vType id="trailer" vClass="trailer" color="223,179,180" accel="0.5"/>
    <vehicle id="1" type="trailer" depart="150.00">
        <route edges="-gneE3 -gneE0"/>
    </vehicle>
    <vehicle id="2" type="trailer" depart="300.00">
        <route edges="gneE0 gneE1"/>
    </vehicle>
    <vehicle id="3" type="trailer" depart="450.00">
        <route edges="gneE2 -gneE0"/>
    </vehicle>
</routes>
